/*---------------------------------------------------------------------------*\
| =========                 |                                                 |
| \\      /  F ield         | OpenFOAM: The Open Source CFD Toolbox           |
|  \\    /   O peration     | Version:  v2012                                 |
|   \\  /    A nd           | Website:  www.openfoam.com                      |
|    \\/     M anipulation  |                                                 |
\*---------------------------------------------------------------------------*/
Build  : _7bdb509494-20201222 OPENFOAM=2012
Arch   : "LSB;label=32;scalar=64"
Exec   : pisoFoam
Date   : Aug 12 2022
Time   : 09:03:42
Host   : DESKTOP-HAN8A0P
PID    : 549
I/O    : uncollated
Case   : /home/jeong/GIT_HUB_files/turbulent_pipe_snappy/pisofoam_pipe_snappy
nProcs : 1
trapFpe: Floating point exception trapping enabled (FOAM_SIGFPE).
fileModificationChecking : Monitoring run-time modified files using timeStampMaster (fileModificationSkew 5, maxFileModificationPolls 20)
allowSystemOperations : Allowing user-supplied system call operations

// * * * * * * * * * * * * * * * * * * * * * * * * * * * * * * * * * * * * * //
Create time

Create mesh for time = 0


PISO: Operating solver in PISO mode

Reading field p

Reading field U

Reading/calculating face flux field phi

Selecting incompressible transport model Newtonian
Selecting turbulence model type laminar
Selecting laminar stress model Stokes
No MRF models present

No finite volume options present

Starting time loop

Time = 25

Courant Number mean: 0.0377143 max: 0.31853
smoothSolver:  Solving for Ux, Initial residual = 1, Final residual = 1.47508e-06, No Iterations 5
smoothSolver:  Solving for Uy, Initial residual = 1, Final residual = 1.47637e-06, No Iterations 5
smoothSolver:  Solving for Uz, Initial residual = 1, Final residual = 5.4554e-06, No Iterations 3
DICPCG:  Solving for p, Initial residual = 1, Final residual = 0.0493143, No Iterations 445
time step continuity errors : sum local = 2.06386e-07, global = -3.70439e-09, cumulative = -3.70439e-09
DICPCG:  Solving for p, Initial residual = 0.000969045, Final residual = 6.74402e-07, No Iterations 457
time step continuity errors : sum local = 9.72428e-10, global = 1.52932e-11, cumulative = -3.6891e-09
ExecutionTime = 6.44 s  ClockTime = 7 s

Time = 50

Courant Number mean: 0.037745 max: 0.273249
smoothSolver:  Solving for Ux, Initial residual = 0.319383, Final residual = 9.61385e-06, No Iterations 3
smoothSolver:  Solving for Uy, Initial residual = 0.319385, Final residual = 9.61299e-06, No Iterations 3
smoothSolver:  Solving for Uz, Initial residual = 0.208874, Final residual = 3.16511e-06, No Iterations 2
DICPCG:  Solving for p, Initial residual = 0.00628956, Final residual = 0.00025147, No Iterations 438
time step continuity errors : sum local = 3.51597e-07, global = 7.71174e-09, cumulative = 4.02264e-09
DICPCG:  Solving for p, Initial residual = 0.000667489, Final residual = 9.66829e-07, No Iterations 452
time step continuity errors : sum local = 9.24891e-10, global = -3.1704e-13, cumulative = 4.02232e-09
ExecutionTime = 11.71 s  ClockTime = 12 s

Time = 75

Courant Number mean: 0.037694 max: 0.281977
smoothSolver:  Solving for Ux, Initial residual = 0.152101, Final residual = 4.77839e-06, No Iterations 3
smoothSolver:  Solving for Uy, Initial residual = 0.152116, Final residual = 4.77771e-06, No Iterations 3
smoothSolver:  Solving for Uz, Initial residual = 0.101965, Final residual = 1.62752e-06, No Iterations 2
DICPCG:  Solving for p, Initial residual = 0.00299899, Final residual = 0.000135078, No Iterations 435
time step continuity errors : sum local = 1.31555e-07, global = 3.2392e-09, cumulative = 7.26152e-09
DICPCG:  Solving for p, Initial residual = 0.000272747, Final residual = 7.77108e-07, No Iterations 449
time step continuity errors : sum local = 7.06279e-10, global = 1.04808e-12, cumulative = 7.26257e-09
ExecutionTime = 16.78 s  ClockTime = 18 s

Time = 100

Courant Number mean: 0.0376447 max: 0.286293
smoothSolver:  Solving for Ux, Initial residual = 0.103192, Final residual = 2.64952e-06, No Iterations 3
smoothSolver:  Solving for Uy, Initial residual = 0.103194, Final residual = 2.6492e-06, No Iterations 3
smoothSolver:  Solving for Uz, Initial residual = 0.0690334, Final residual = 1.03468e-06, No Iterations 2
DICPCG:  Solving for p, Initial residual = 0.00200335, Final residual = 9.67716e-05, No Iterations 436
time step continuity errors : sum local = 8.83591e-08, global = 1.81667e-09, cumulative = 9.07925e-09
DICPCG:  Solving for p, Initial residual = 0.000177812, Final residual = 7.23565e-07, No Iterations 447
time step continuity errors : sum local = 6.19729e-10, global = 1.746e-12, cumulative = 9.08099e-09
ExecutionTime = 21.86 s  ClockTime = 23 s

Time = 125

Courant Number mean: 0.0375983 max: 0.288557
smoothSolver:  Solving for Ux, Initial residual = 0.0757168, Final residual = 1.65728e-06, No Iterations 3
smoothSolver:  Solving for Uy, Initial residual = 0.0757187, Final residual = 1.6571e-06, No Iterations 3
smoothSolver:  Solving for Uz, Initial residual = 0.0516544, Final residual = 7.35108e-07, No Iterations 2
DICPCG:  Solving for p, Initial residual = 0.000859024, Final residual = 3.82516e-05, No Iterations 439
time step continuity errors : sum local = 3.28683e-08, global = 6.52181e-10, cumulative = 9.73317e-09
DICPCG:  Solving for p, Initial residual = 9.45325e-05, Final residual = 8.24238e-07, No Iterations 447
time step continuity errors : sum local = 6.66796e-10, global = -1.25198e-12, cumulative = 9.73192e-09
ExecutionTime = 27.05 s  ClockTime = 28 s

Time = 150

Courant Number mean: 0.0375542 max: 0.28982
smoothSolver:  Solving for Ux, Initial residual = 0.0586981, Final residual = 1.11233e-06, No Iterations 3
smoothSolver:  Solving for Uy, Initial residual = 0.058701, Final residual = 1.1122e-06, No Iterations 3
smoothSolver:  Solving for Uz, Initial residual = 0.0409881, Final residual = 5.55602e-07, No Iterations 2
DICPCG:  Solving for p, Initial residual = 0.000497338, Final residual = 2.36393e-05, No Iterations 440
time step continuity errors : sum local = 1.9175e-08, global = 3.52806e-10, cumulative = 1.00847e-08
DICPCG:  Solving for p, Initial residual = 6.71322e-05, Final residual = 8.97949e-07, No Iterations 446
time step continuity errors : sum local = 6.88586e-10, global = -1.24629e-11, cumulative = 1.00723e-08
ExecutionTime = 32 s  ClockTime = 34 s

Time = 175

Courant Number mean: 0.0375121 max: 0.290563
smoothSolver:  Solving for Ux, Initial residual = 0.04716, Final residual = 9.36942e-06, No Iterations 2
smoothSolver:  Solving for Uy, Initial residual = 0.0471625, Final residual = 9.36839e-06, No Iterations 2
smoothSolver:  Solving for Uz, Initial residual = 0.0339776, Final residual = 4.38111e-07, No Iterations 2
DICPCG:  Solving for p, Initial residual = 0.000519729, Final residual = 2.54955e-05, No Iterations 439
time step continuity errors : sum local = 1.95953e-08, global = 3.94129e-10, cumulative = 1.04664e-08
DICPCG:  Solving for p, Initial residual = 5.9458e-05, Final residual = 8.99172e-07, No Iterations 445
time step continuity errors : sum local = 6.55976e-10, global = -9.46036e-12, cumulative = 1.04569e-08
ExecutionTime = 37.05 s  ClockTime = 39 s

Time = 200

Courant Number mean: 0.0374719 max: 0.291018
smoothSolver:  Solving for Ux, Initial residual = 0.0388216, Final residual = 6.9777e-06, No Iterations 2
smoothSolver:  Solving for Uy, Initial residual = 0.0388224, Final residual = 6.97691e-06, No Iterations 2
smoothSolver:  Solving for Uz, Initial residual = 0.0289006, Final residual = 3.561e-07, No Iterations 2
DICPCG:  Solving for p, Initial residual = 0.000564173, Final residual = 2.7981e-05, No Iterations 438
time step continuity errors : sum local = 2.04531e-08, global = 4.50109e-10, cumulative = 1.0907e-08
DICPCG:  Solving for p, Initial residual = 5.59243e-05, Final residual = 7.24664e-07, No Iterations 445
time step continuity errors : sum local = 5.04739e-10, global = -7.42386e-13, cumulative = 1.09063e-08
ExecutionTime = 42.27 s  ClockTime = 46 s

Time = 225

Courant Number mean: 0.0374334 max: 0.291307
smoothSolver:  Solving for Ux, Initial residual = 0.0325512, Final residual = 5.42832e-06, No Iterations 2
smoothSolver:  Solving for Uy, Initial residual = 0.032551, Final residual = 5.42769e-06, No Iterations 2
smoothSolver:  Solving for Uz, Initial residual = 0.0250635, Final residual = 2.96193e-07, No Iterations 2
DICPCG:  Solving for p, Initial residual = 0.000579137, Final residual = 2.39885e-05, No Iterations 438
time step continuity errors : sum local = 1.67373e-08, global = 3.55125e-10, cumulative = 1.12614e-08
DICPCG:  Solving for p, Initial residual = 4.81174e-05, Final residual = 7.61926e-07, No Iterations 444
time step continuity errors : sum local = 5.08393e-10, global = -4.48699e-12, cumulative = 1.12569e-08
ExecutionTime = 47.69 s  ClockTime = 52 s

Time = 250

Courant Number mean: 0.0373963 max: 0.291495
smoothSolver:  Solving for Ux, Initial residual = 0.0276702, Final residual = 4.35528e-06, No Iterations 2
smoothSolver:  Solving for Uy, Initial residual = 0.02767, Final residual = 4.35475e-06, No Iterations 2
smoothSolver:  Solving for Uz, Initial residual = 0.0220682, Final residual = 2.5089e-07, No Iterations 2
DICPCG:  Solving for p, Initial residual = 0.000579913, Final residual = 2.74395e-05, No Iterations 437
time step continuity errors : sum local = 1.83372e-08, global = 3.11519e-10, cumulative = 1.15685e-08
DICPCG:  Solving for p, Initial residual = 4.82124e-05, Final residual = 8.80526e-07, No Iterations 443
time step continuity errors : sum local = 5.64621e-10, global = -3.5332e-12, cumulative = 1.15649e-08
ExecutionTime = 52.57 s  ClockTime = 57 s

Time = 275

Courant Number mean: 0.0373605 max: 0.291622
smoothSolver:  Solving for Ux, Initial residual = 0.023789, Final residual = 3.57295e-06, No Iterations 2
smoothSolver:  Solving for Uy, Initial residual = 0.0237888, Final residual = 3.57254e-06, No Iterations 2
smoothSolver:  Solving for Uz, Initial residual = 0.0196701, Final residual = 2.15685e-07, No Iterations 2
DICPCG:  Solving for p, Initial residual = 0.000570637, Final residual = 2.41174e-05, No Iterations 437
time step continuity errors : sum local = 1.54863e-08, global = 2.52318e-10, cumulative = 1.18172e-08
DICPCG:  Solving for p, Initial residual = 4.26244e-05, Final residual = 7.27594e-07, No Iterations 443
time step continuity errors : sum local = 4.49676e-10, global = -4.53234e-12, cumulative = 1.18127e-08
ExecutionTime = 57.33 s  ClockTime = 62 s

Time = 300

Courant Number mean: 0.0373258 max: 0.291711
smoothSolver:  Solving for Ux, Initial residual = 0.0206408, Final residual = 2.99216e-06, No Iterations 2
smoothSolver:  Solving for Uy, Initial residual = 0.0206407, Final residual = 2.99182e-06, No Iterations 2
smoothSolver:  Solving for Uz, Initial residual = 0.0177101, Final residual = 1.87749e-07, No Iterations 2
DICPCG:  Solving for p, Initial residual = 0.000555555, Final residual = 2.58951e-05, No Iterations 436
time step continuity errors : sum local = 1.60241e-08, global = 3.06135e-10, cumulative = 1.21188e-08
DICPCG:  Solving for p, Initial residual = 4.23414e-05, Final residual = 8.85759e-07, No Iterations 442
time step continuity errors : sum local = 5.29037e-10, global = -6.42894e-12, cumulative = 1.21124e-08
ExecutionTime = 62.1 s  ClockTime = 67 s

Time = 325

Courant Number mean: 0.0372922 max: 0.291773
smoothSolver:  Solving for Ux, Initial residual = 0.0180464, Final residual = 2.54675e-06, No Iterations 2
smoothSolver:  Solving for Uy, Initial residual = 0.0180461, Final residual = 2.54644e-06, No Iterations 2
smoothSolver:  Solving for Uz, Initial residual = 0.0161232, Final residual = 1.6513e-07, No Iterations 2
DICPCG:  Solving for p, Initial residual = 0.000537988, Final residual = 2.47235e-05, No Iterations 436
time step continuity errors : sum local = 1.47835e-08, global = 2.89369e-10, cumulative = 1.24018e-08
DICPCG:  Solving for p, Initial residual = 3.95615e-05, Final residual = 7.70949e-07, No Iterations 442
time step continuity errors : sum local = 4.46089e-10, global = -5.24091e-12, cumulative = 1.23965e-08
ExecutionTime = 66.9 s  ClockTime = 72 s

Time = 350

Courant Number mean: 0.0372596 max: 0.291818
smoothSolver:  Solving for Ux, Initial residual = 0.0158892, Final residual = 2.19843e-06, No Iterations 2
smoothSolver:  Solving for Uy, Initial residual = 0.0158888, Final residual = 2.19818e-06, No Iterations 2
smoothSolver:  Solving for Uz, Initial residual = 0.0147966, Final residual = 1.46551e-07, No Iterations 2
DICPCG:  Solving for p, Initial residual = 0.000514026, Final residual = 2.31113e-05, No Iterations 436
time step continuity errors : sum local = 1.33868e-08, global = 2.59843e-10, cumulative = 1.26564e-08
DICPCG:  Solving for p, Initial residual = 3.65648e-05, Final residual = 9.37399e-07, No Iterations 441
time step continuity errors : sum local = 5.2664e-10, global = -8.59593e-12, cumulative = 1.26478e-08
ExecutionTime = 71.57 s  ClockTime = 77 s

Time = 375

Courant Number mean: 0.0372277 max: 0.291851
smoothSolver:  Solving for Ux, Initial residual = 0.0140657, Final residual = 1.91609e-06, No Iterations 2
smoothSolver:  Solving for Uy, Initial residual = 0.0140652, Final residual = 1.91588e-06, No Iterations 2
smoothSolver:  Solving for Uz, Initial residual = 0.0136629, Final residual = 9.47274e-06, No Iterations 1
DICPCG:  Solving for p, Initial residual = 0.000495479, Final residual = 2.06081e-05, No Iterations 435
time step continuity errors : sum local = 1.1589e-08, global = 2.26078e-10, cumulative = 1.28739e-08
DICPCG:  Solving for p, Initial residual = 4.29426e-05, Final residual = 9.36152e-07, No Iterations 444
time step continuity errors : sum local = 5.11619e-10, global = 6.2153e-12, cumulative = 1.28801e-08
ExecutionTime = 76.75 s  ClockTime = 83 s

Time = 400

Courant Number mean: 0.0371967 max: 0.291874
smoothSolver:  Solving for Ux, Initial residual = 0.0125087, Final residual = 1.68706e-06, No Iterations 2
smoothSolver:  Solving for Uy, Initial residual = 0.0125082, Final residual = 1.68687e-06, No Iterations 2
smoothSolver:  Solving for Uz, Initial residual = 0.0126835, Final residual = 8.71331e-06, No Iterations 1
DICPCG:  Solving for p, Initial residual = 0.00047451, Final residual = 2.18983e-05, No Iterations 434
time step continuity errors : sum local = 1.19796e-08, global = 2.16832e-10, cumulative = 1.30969e-08
DICPCG:  Solving for p, Initial residual = 4.19653e-05, Final residual = 9.64967e-07, No Iterations 443
time step continuity errors : sum local = 5.14015e-10, global = 4.41338e-12, cumulative = 1.31013e-08
ExecutionTime = 82.15 s  ClockTime = 89 s

Time = 425

Courant Number mean: 0.0371663 max: 0.291892
smoothSolver:  Solving for Ux, Initial residual = 0.0111711, Final residual = 1.497e-06, No Iterations 2
smoothSolver:  Solving for Uy, Initial residual = 0.0111704, Final residual = 1.49685e-06, No Iterations 2
smoothSolver:  Solving for Uz, Initial residual = 0.0118523, Final residual = 8.06154e-06, No Iterations 1
DICPCG:  Solving for p, Initial residual = 0.000451828, Final residual = 2.11398e-05, No Iterations 434
time step continuity errors : sum local = 1.12711e-08, global = 2.21758e-10, cumulative = 1.33231e-08
DICPCG:  Solving for p, Initial residual = 4.00189e-05, Final residual = 9.14527e-07, No Iterations 443
time step continuity errors : sum local = 4.75593e-10, global = 3.66484e-12, cumulative = 1.33268e-08
ExecutionTime = 87.18 s  ClockTime = 94 s

Time = 450

Courant Number mean: 0.0371366 max: 0.291905
smoothSolver:  Solving for Ux, Initial residual = 0.0100107, Final residual = 1.33707e-06, No Iterations 2
smoothSolver:  Solving for Uy, Initial residual = 0.0100104, Final residual = 1.33698e-06, No Iterations 2
smoothSolver:  Solving for Uz, Initial residual = 0.0111555, Final residual = 7.50201e-06, No Iterations 1
DICPCG:  Solving for p, Initial residual = 0.000430633, Final residual = 1.99208e-05, No Iterations 434
time step continuity errors : sum local = 1.03686e-08, global = 2.03595e-10, cumulative = 1.35303e-08
DICPCG:  Solving for p, Initial residual = 3.77773e-05, Final residual = 9.4021e-07, No Iterations 443
time step continuity errors : sum local = 4.78059e-10, global = 4.42265e-12, cumulative = 1.35348e-08
ExecutionTime = 92.17 s  ClockTime = 100 s

Time = 475

Courant Number mean: 0.0371074 max: 0.291915
smoothSolver:  Solving for Ux, Initial residual = 0.00899965, Final residual = 1.20103e-06, No Iterations 2
smoothSolver:  Solving for Uy, Initial residual = 0.00899918, Final residual = 1.20092e-06, No Iterations 2
smoothSolver:  Solving for Uz, Initial residual = 0.0105364, Final residual = 7.01446e-06, No Iterations 1
DICPCG:  Solving for p, Initial residual = 0.000410374, Final residual = 1.84281e-05, No Iterations 434
time step continuity errors : sum local = 9.37755e-09, global = 1.77793e-10, cumulative = 1.37126e-08
DICPCG:  Solving for p, Initial residual = 3.54134e-05, Final residual = 9.58149e-07, No Iterations 426
time step continuity errors : sum local = 4.76966e-10, global = -9.35107e-12, cumulative = 1.37032e-08
ExecutionTime = 97.23 s  ClockTime = 105 s

Time = 500

Courant Number mean: 0.0370788 max: 0.291923
smoothSolver:  Solving for Ux, Initial residual = 0.00811963, Final residual = 1.0849e-06, No Iterations 2
smoothSolver:  Solving for Uy, Initial residual = 0.00811926, Final residual = 1.08481e-06, No Iterations 2
smoothSolver:  Solving for Uz, Initial residual = 0.0099794, Final residual = 6.58468e-06, No Iterations 1
DICPCG:  Solving for p, Initial residual = 0.00039147, Final residual = 1.7681e-05, No Iterations 434
time step continuity errors : sum local = 8.80826e-09, global = 1.7446e-10, cumulative = 1.38777e-08
DICPCG:  Solving for p, Initial residual = 3.37963e-05, Final residual = 9.88745e-07, No Iterations 427
time step continuity errors : sum local = 4.82459e-10, global = -8.36953e-12, cumulative = 1.38693e-08
ExecutionTime = 101.88 s  ClockTime = 110 s

Time = 525

Courant Number mean: 0.0370507 max: 0.291928
smoothSolver:  Solving for Ux, Initial residual = 0.00734431, Final residual = 9.84864e-07, No Iterations 2
smoothSolver:  Solving for Uy, Initial residual = 0.00734394, Final residual = 9.84788e-07, No Iterations 2
smoothSolver:  Solving for Uz, Initial residual = 0.00948946, Final residual = 6.20337e-06, No Iterations 1
DICPCG:  Solving for p, Initial residual = 0.000374038, Final residual = 1.6915e-05, No Iterations 434
time step continuity errors : sum local = 8.25961e-09, global = 1.56834e-10, cumulative = 1.40261e-08
DICPCG:  Solving for p, Initial residual = 3.22696e-05, Final residual = 9.84592e-07, No Iterations 422
time step continuity errors : sum local = 4.71439e-10, global = -1.10049e-11, cumulative = 1.40151e-08
ExecutionTime = 106.58 s  ClockTime = 115 s

Time = 550

Courant Number mean: 0.0370231 max: 0.291933
smoothSolver:  Solving for Ux, Initial residual = 0.00665841, Final residual = 8.98083e-07, No Iterations 2
smoothSolver:  Solving for Uy, Initial residual = 0.00665795, Final residual = 8.98001e-07, No Iterations 2
smoothSolver:  Solving for Uz, Initial residual = 0.00905174, Final residual = 5.86697e-06, No Iterations 1
DICPCG:  Solving for p, Initial residual = 0.000356807, Final residual = 1.44556e-05, No Iterations 434
time step continuity errors : sum local = 6.92631e-09, global = 1.0904e-10, cumulative = 1.41242e-08
DICPCG:  Solving for p, Initial residual = 2.93389e-05, Final residual = 9.86131e-07, No Iterations 421
time step continuity errors : sum local = 4.63788e-10, global = -6.88619e-12, cumulative = 1.41173e-08
ExecutionTime = 111.38 s  ClockTime = 120 s

Time = 575

Courant Number mean: 0.0369959 max: 0.291937
smoothSolver:  Solving for Ux, Initial residual = 0.00604824, Final residual = 8.21965e-07, No Iterations 2
smoothSolver:  Solving for Uy, Initial residual = 0.00604792, Final residual = 8.21916e-07, No Iterations 2
smoothSolver:  Solving for Uz, Initial residual = 0.00865334, Final residual = 5.56697e-06, No Iterations 1
DICPCG:  Solving for p, Initial residual = 0.000340692, Final residual = 1.43646e-05, No Iterations 434
time step continuity errors : sum local = 6.76023e-09, global = 1.17898e-10, cumulative = 1.42352e-08
DICPCG:  Solving for p, Initial residual = 2.85201e-05, Final residual = 9.52623e-07, No Iterations 421
time step continuity errors : sum local = 4.4046e-10, global = -2.19122e-12, cumulative = 1.4233e-08
ExecutionTime = 116.02 s  ClockTime = 125 s

Time = 600

Courant Number mean: 0.0369691 max: 0.291939
smoothSolver:  Solving for Ux, Initial residual = 0.00550173, Final residual = 7.5544e-07, No Iterations 2
smoothSolver:  Solving for Uy, Initial residual = 0.00550143, Final residual = 7.55395e-07, No Iterations 2
smoothSolver:  Solving for Uz, Initial residual = 0.00828889, Final residual = 5.29708e-06, No Iterations 1
DICPCG:  Solving for p, Initial residual = 0.000325375, Final residual = 1.29314e-05, No Iterations 434
time step continuity errors : sum local = 5.98274e-09, global = 9.78412e-11, cumulative = 1.43308e-08
DICPCG:  Solving for p, Initial residual = 2.65831e-05, Final residual = 9.69403e-07, No Iterations 422
time step continuity errors : sum local = 4.41001e-10, global = 2.58336e-12, cumulative = 1.43334e-08
ExecutionTime = 120.63 s  ClockTime = 129 s

Time = 625

Courant Number mean: 0.0369427 max: 0.291942
smoothSolver:  Solving for Ux, Initial residual = 0.00501146, Final residual = 6.96204e-07, No Iterations 2
smoothSolver:  Solving for Uy, Initial residual = 0.00501124, Final residual = 6.96175e-07, No Iterations 2
smoothSolver:  Solving for Uz, Initial residual = 0.00795394, Final residual = 5.05206e-06, No Iterations 1
DICPCG:  Solving for p, Initial residual = 0.0003122, Final residual = 1.33351e-05, No Iterations 434
time step continuity errors : sum local = 6.06999e-09, global = 1.02244e-10, cumulative = 1.44357e-08
DICPCG:  Solving for p, Initial residual = 2.63125e-05, Final residual = 9.31312e-07, No Iterations 423
time step continuity errors : sum local = 4.17152e-10, global = 3.50258e-12, cumulative = 1.44392e-08
ExecutionTime = 125.19 s  ClockTime = 134 s

Time = 650

Courant Number mean: 0.0369167 max: 0.291943
smoothSolver:  Solving for Ux, Initial residual = 0.00460464, Final residual = 6.43493e-07, No Iterations 2
smoothSolver:  Solving for Uy, Initial residual = 0.00460447, Final residual = 6.43463e-07, No Iterations 2
smoothSolver:  Solving for Uz, Initial residual = 0.0076448, Final residual = 4.82943e-06, No Iterations 1
DICPCG:  Solving for p, Initial residual = 0.000298464, Final residual = 1.22886e-05, No Iterations 434
time step continuity errors : sum local = 5.50742e-09, global = 9.46635e-11, cumulative = 1.45338e-08
DICPCG:  Solving for p, Initial residual = 2.48659e-05, Final residual = 9.80731e-07, No Iterations 423
time step continuity errors : sum local = 4.32812e-10, global = 3.44523e-12, cumulative = 1.45373e-08
ExecutionTime = 129.48 s  ClockTime = 138 s

Time = 675

Courant Number mean: 0.036891 max: 0.291945
smoothSolver:  Solving for Ux, Initial residual = 0.0043248, Final residual = 5.96491e-07, No Iterations 2
smoothSolver:  Solving for Uy, Initial residual = 0.0043246, Final residual = 5.96456e-07, No Iterations 2
smoothSolver:  Solving for Uz, Initial residual = 0.00735834, Final residual = 4.62678e-06, No Iterations 1
DICPCG:  Solving for p, Initial residual = 0.000286647, Final residual = 1.1398e-05, No Iterations 434
time step continuity errors : sum local = 5.03284e-09, global = 8.03143e-11, cumulative = 1.46176e-08
DICPCG:  Solving for p, Initial residual = 2.35897e-05, Final residual = 9.3673e-07, No Iterations 424
time step continuity errors : sum local = 4.07544e-10, global = 3.40245e-12, cumulative = 1.4621e-08
ExecutionTime = 133.88 s  ClockTime = 143 s

Time = 700

Courant Number mean: 0.0368657 max: 0.291946
smoothSolver:  Solving for Ux, Initial residual = 0.00410983, Final residual = 5.54582e-07, No Iterations 2
smoothSolver:  Solving for Uy, Initial residual = 0.00410963, Final residual = 5.54548e-07, No Iterations 2
smoothSolver:  Solving for Uz, Initial residual = 0.00709194, Final residual = 4.44002e-06, No Iterations 1
DICPCG:  Solving for p, Initial residual = 0.000277379, Final residual = 1.36497e-05, No Iterations 433
time step continuity errors : sum local = 5.94167e-09, global = 9.73104e-11, cumulative = 1.47183e-08
DICPCG:  Solving for p, Initial residual = 2.50775e-05, Final residual = 9.29996e-07, No Iterations 423
time step continuity errors : sum local = 3.99108e-10, global = 3.37962e-12, cumulative = 1.47217e-08
ExecutionTime = 138.32 s  ClockTime = 148 s

Time = 725

Courant Number mean: 0.0368406 max: 0.291947
smoothSolver:  Solving for Ux, Initial residual = 0.00393734, Final residual = 5.16921e-07, No Iterations 2
smoothSolver:  Solving for Uy, Initial residual = 0.00393712, Final residual = 5.16886e-07, No Iterations 2
smoothSolver:  Solving for Uz, Initial residual = 0.00684339, Final residual = 4.26717e-06, No Iterations 1
DICPCG:  Solving for p, Initial residual = 0.00026653, Final residual = 1.30702e-05, No Iterations 433
time step continuity errors : sum local = 5.61187e-09, global = 9.75538e-11, cumulative = 1.48192e-08
DICPCG:  Solving for p, Initial residual = 2.41133e-05, Final residual = 9.64216e-07, No Iterations 423
time step continuity errors : sum local = 4.08367e-10, global = 3.5274e-12, cumulative = 1.48228e-08
ExecutionTime = 142.77 s  ClockTime = 152 s

Time = 750

Courant Number mean: 0.0368159 max: 0.291948
smoothSolver:  Solving for Ux, Initial residual = 0.00390489, Final residual = 4.82581e-07, No Iterations 2
smoothSolver:  Solving for Uy, Initial residual = 0.00390469, Final residual = 4.82562e-07, No Iterations 2
smoothSolver:  Solving for Uz, Initial residual = 0.00660949, Final residual = 4.10591e-06, No Iterations 1
DICPCG:  Solving for p, Initial residual = 0.00025624, Final residual = 1.19427e-05, No Iterations 433
time step continuity errors : sum local = 5.06043e-09, global = 7.93006e-11, cumulative = 1.49021e-08
DICPCG:  Solving for p, Initial residual = 2.27183e-05, Final residual = 9.63694e-07, No Iterations 423
time step continuity errors : sum local = 4.02979e-10, global = 1.94384e-12, cumulative = 1.4904e-08
ExecutionTime = 146.99 s  ClockTime = 156 s

Time = 775

Courant Number mean: 0.0367915 max: 0.291949
smoothSolver:  Solving for Ux, Initial residual = 0.00390664, Final residual = 4.51378e-07, No Iterations 2
smoothSolver:  Solving for Uy, Initial residual = 0.00390643, Final residual = 4.51361e-07, No Iterations 2
smoothSolver:  Solving for Uz, Initial residual = 0.00638768, Final residual = 3.95464e-06, No Iterations 1
DICPCG:  Solving for p, Initial residual = 0.000246901, Final residual = 1.14478e-05, No Iterations 433
time step continuity errors : sum local = 4.78921e-09, global = 6.526e-11, cumulative = 1.49693e-08
DICPCG:  Solving for p, Initial residual = 2.19408e-05, Final residual = 9.69116e-07, No Iterations 423
time step continuity errors : sum local = 4.00287e-10, global = 1.37584e-12, cumulative = 1.49706e-08
ExecutionTime = 151.44 s  ClockTime = 161 s

Time = 800

Courant Number mean: 0.0367673 max: 0.291949
smoothSolver:  Solving for Ux, Initial residual = 0.00389954, Final residual = 4.2321e-07, No Iterations 2
smoothSolver:  Solving for Uy, Initial residual = 0.00389937, Final residual = 4.23186e-07, No Iterations 2
smoothSolver:  Solving for Uz, Initial residual = 0.00617584, Final residual = 3.81183e-06, No Iterations 1
DICPCG:  Solving for p, Initial residual = 0.000239752, Final residual = 1.08167e-05, No Iterations 433
time step continuity errors : sum local = 4.46976e-09, global = 6.37557e-11, cumulative = 1.50344e-08
DICPCG:  Solving for p, Initial residual = 2.10481e-05, Final residual = 9.46872e-07, No Iterations 423
time step continuity errors : sum local = 3.86465e-10, global = 1.47431e-12, cumulative = 1.50359e-08
ExecutionTime = 155.88 s  ClockTime = 165 s

Time = 825

Courant Number mean: 0.0367434 max: 0.29195
smoothSolver:  Solving for Ux, Initial residual = 0.00388656, Final residual = 3.97678e-07, No Iterations 2
smoothSolver:  Solving for Uy, Initial residual = 0.00388637, Final residual = 3.97654e-07, No Iterations 2
smoothSolver:  Solving for Uz, Initial residual = 0.00597615, Final residual = 3.67866e-06, No Iterations 1
DICPCG:  Solving for p, Initial residual = 0.000231667, Final residual = 9.88908e-06, No Iterations 433
time step continuity errors : sum local = 4.03797e-09, global = 5.60793e-11, cumulative = 1.50919e-08
DICPCG:  Solving for p, Initial residual = 1.99054e-05, Final residual = 9.98401e-07, No Iterations 422
time step continuity errors : sum local = 4.02817e-10, global = 7.97998e-14, cumulative = 1.5092e-08
ExecutionTime = 160.23 s  ClockTime = 170 s

Time = 850

Courant Number mean: 0.0367198 max: 0.29195
smoothSolver:  Solving for Ux, Initial residual = 0.00386669, Final residual = 9.62431e-06, No Iterations 1
smoothSolver:  Solving for Uy, Initial residual = 0.00386659, Final residual = 9.62404e-06, No Iterations 1
smoothSolver:  Solving for Uz, Initial residual = 0.00578769, Final residual = 3.55381e-06, No Iterations 1
DICPCG:  Solving for p, Initial residual = 0.000224995, Final residual = 9.23765e-06, No Iterations 433
time step continuity errors : sum local = 3.72859e-09, global = 4.08814e-11, cumulative = 1.51329e-08
DICPCG:  Solving for p, Initial residual = 1.93803e-05, Final residual = 9.87378e-07, No Iterations 422
time step continuity errors : sum local = 3.93927e-10, global = -9.49888e-13, cumulative = 1.5132e-08
ExecutionTime = 164.44 s  ClockTime = 174 s

Time = 875

Courant Number mean: 0.0366964 max: 0.291951
smoothSolver:  Solving for Ux, Initial residual = 0.00384574, Final residual = 9.22154e-06, No Iterations 1
smoothSolver:  Solving for Uy, Initial residual = 0.00384562, Final residual = 9.2213e-06, No Iterations 1
smoothSolver:  Solving for Uz, Initial residual = 0.00560946, Final residual = 3.43689e-06, No Iterations 1
DICPCG:  Solving for p, Initial residual = 0.00021775, Final residual = 8.89483e-06, No Iterations 433
time step continuity errors : sum local = 3.55014e-09, global = 3.33778e-11, cumulative = 1.51653e-08
DICPCG:  Solving for p, Initial residual = 1.87498e-05, Final residual = 9.34716e-07, No Iterations 422
time step continuity errors : sum local = 3.68875e-10, global = -1.12212e-12, cumulative = 1.51642e-08
ExecutionTime = 168.89 s  ClockTime = 179 s

Time = 900

Courant Number mean: 0.0366733 max: 0.291951
smoothSolver:  Solving for Ux, Initial residual = 0.00381855, Final residual = 8.83604e-06, No Iterations 1
smoothSolver:  Solving for Uy, Initial residual = 0.00381843, Final residual = 8.83591e-06, No Iterations 1
smoothSolver:  Solving for Uz, Initial residual = 0.0054406, Final residual = 3.32714e-06, No Iterations 1
DICPCG:  Solving for p, Initial residual = 0.0002126, Final residual = 8.94502e-06, No Iterations 433
time step continuity errors : sum local = 3.53143e-09, global = 3.4691e-11, cumulative = 1.51989e-08
DICPCG:  Solving for p, Initial residual = 1.8518e-05, Final residual = 9.81843e-07, No Iterations 421
time step continuity errors : sum local = 3.83387e-10, global = -2.63858e-12, cumulative = 1.51963e-08
ExecutionTime = 173.64 s  ClockTime = 184 s

Time = 925

Courant Number mean: 0.0366504 max: 0.291959
smoothSolver:  Solving for Ux, Initial residual = 0.00378777, Final residual = 8.4728e-06, No Iterations 1
smoothSolver:  Solving for Uy, Initial residual = 0.00378764, Final residual = 8.47248e-06, No Iterations 1
smoothSolver:  Solving for Uz, Initial residual = 0.00528036, Final residual = 3.22379e-06, No Iterations 1
DICPCG:  Solving for p, Initial residual = 0.000206474, Final residual = 9.80465e-06, No Iterations 432
time step continuity errors : sum local = 3.82995e-09, global = 4.01442e-11, cumulative = 1.52364e-08
DICPCG:  Solving for p, Initial residual = 1.9078e-05, Final residual = 9.62186e-07, No Iterations 421
time step continuity errors : sum local = 3.71853e-10, global = -2.06314e-12, cumulative = 1.52343e-08
ExecutionTime = 178.63 s  ClockTime = 190 s

Time = 950

Courant Number mean: 0.0366277 max: 0.292
smoothSolver:  Solving for Ux, Initial residual = 0.00375359, Final residual = 8.13592e-06, No Iterations 1
smoothSolver:  Solving for Uy, Initial residual = 0.00375354, Final residual = 8.13566e-06, No Iterations 1
smoothSolver:  Solving for Uz, Initial residual = 0.00513058, Final residual = 3.12644e-06, No Iterations 1
DICPCG:  Solving for p, Initial residual = 0.000201275, Final residual = 9.10188e-06, No Iterations 432
time step continuity errors : sum local = 3.51888e-09, global = 3.25009e-11, cumulative = 1.52668e-08
DICPCG:  Solving for p, Initial residual = 1.82376e-05, Final residual = 9.83381e-07, No Iterations 420
time step continuity errors : sum local = 3.76241e-10, global = -4.0786e-12, cumulative = 1.52628e-08
ExecutionTime = 183.19 s  ClockTime = 195 s

Time = 975

Courant Number mean: 0.0366052 max: 0.292035
smoothSolver:  Solving for Ux, Initial residual = 0.00371906, Final residual = 7.82331e-06, No Iterations 1
smoothSolver:  Solving for Uy, Initial residual = 0.003719, Final residual = 7.82308e-06, No Iterations 1
smoothSolver:  Solving for Uz, Initial residual = 0.00499188, Final residual = 3.03475e-06, No Iterations 1
DICPCG:  Solving for p, Initial residual = 0.000196894, Final residual = 8.56748e-06, No Iterations 432
time step continuity errors : sum local = 3.2791e-09, global = 1.83488e-11, cumulative = 1.52811e-08
DICPCG:  Solving for p, Initial residual = 1.75339e-05, Final residual = 9.49085e-07, No Iterations 420
time step continuity errors : sum local = 3.59575e-10, global = -4.0526e-12, cumulative = 1.52771e-08
ExecutionTime = 187.49 s  ClockTime = 199 s

Time = 1000

Courant Number mean: 0.036583 max: 0.292066
smoothSolver:  Solving for Ux, Initial residual = 0.0036837, Final residual = 7.52782e-06, No Iterations 1
smoothSolver:  Solving for Uy, Initial residual = 0.00368352, Final residual = 7.52752e-06, No Iterations 1
smoothSolver:  Solving for Uz, Initial residual = 0.00485963, Final residual = 2.94786e-06, No Iterations 1
DICPCG:  Solving for p, Initial residual = 0.000194016, Final residual = 8.47708e-06, No Iterations 432
time step continuity errors : sum local = 3.2128e-09, global = 1.78526e-11, cumulative = 1.52949e-08
DICPCG:  Solving for p, Initial residual = 1.72988e-05, Final residual = 9.07672e-07, No Iterations 420
time step continuity errors : sum local = 3.40607e-10, global = -3.67588e-12, cumulative = 1.52912e-08
ExecutionTime = 192.02 s  ClockTime = 204 s

Time = 1025

Courant Number mean: 0.036561 max: 0.292093
smoothSolver:  Solving for Ux, Initial residual = 0.00364575, Final residual = 7.25494e-06, No Iterations 1
smoothSolver:  Solving for Uy, Initial residual = 0.00364566, Final residual = 7.2548e-06, No Iterations 1
smoothSolver:  Solving for Uz, Initial residual = 0.00473576, Final residual = 2.86546e-06, No Iterations 1
DICPCG:  Solving for p, Initial residual = 0.000189069, Final residual = 8.28703e-06, No Iterations 432
time step continuity errors : sum local = 3.11081e-09, global = 2.1811e-11, cumulative = 1.53131e-08
DICPCG:  Solving for p, Initial residual = 1.69293e-05, Final residual = 9.63941e-07, No Iterations 419
time step continuity errors : sum local = 3.58354e-10, global = -3.94506e-12, cumulative = 1.53091e-08
ExecutionTime = 196.28 s  ClockTime = 208 s

Time = 1050

Courant Number mean: 0.0365391 max: 0.292116
smoothSolver:  Solving for Ux, Initial residual = 0.00360907, Final residual = 7.00605e-06, No Iterations 1
smoothSolver:  Solving for Uy, Initial residual = 0.00360897, Final residual = 7.00574e-06, No Iterations 1
smoothSolver:  Solving for Uz, Initial residual = 0.00461875, Final residual = 2.78701e-06, No Iterations 1
DICPCG:  Solving for p, Initial residual = 0.000184696, Final residual = 7.43397e-06, No Iterations 432
time step continuity errors : sum local = 2.76458e-09, global = 4.78622e-12, cumulative = 1.53139e-08
DICPCG:  Solving for p, Initial residual = 1.605e-05, Final residual = 9.87368e-07, No Iterations 418
time step continuity errors : sum local = 3.63723e-10, global = -4.8284e-12, cumulative = 1.53091e-08
ExecutionTime = 200.49 s  ClockTime = 212 s

Time = 1075

Courant Number mean: 0.0365175 max: 0.292137
smoothSolver:  Solving for Ux, Initial residual = 0.00357243, Final residual = 6.76562e-06, No Iterations 1
smoothSolver:  Solving for Uy, Initial residual = 0.00357233, Final residual = 6.76549e-06, No Iterations 1
smoothSolver:  Solving for Uz, Initial residual = 0.0045051, Final residual = 2.71113e-06, No Iterations 1
DICPCG:  Solving for p, Initial residual = 0.000177859, Final residual = 7.7342e-06, No Iterations 431
time step continuity errors : sum local = 2.85003e-09, global = 6.15813e-12, cumulative = 1.53152e-08
DICPCG:  Solving for p, Initial residual = 1.59995e-05, Final residual = 9.66171e-07, No Iterations 418
time step continuity errors : sum local = 3.52746e-10, global = -4.33217e-12, cumulative = 1.53109e-08
ExecutionTime = 204.82 s  ClockTime = 217 s

Time = 1100

Courant Number mean: 0.0364961 max: 0.292155
smoothSolver:  Solving for Ux, Initial residual = 0.00354574, Final residual = 6.53543e-06, No Iterations 1
smoothSolver:  Solving for Uy, Initial residual = 0.00354575, Final residual = 6.53534e-06, No Iterations 1
smoothSolver:  Solving for Uz, Initial residual = 0.00439611, Final residual = 2.63855e-06, No Iterations 1
DICPCG:  Solving for p, Initial residual = 0.000175833, Final residual = 7.20267e-06, No Iterations 431
time step continuity errors : sum local = 2.63051e-09, global = 7.83906e-12, cumulative = 1.53187e-08
DICPCG:  Solving for p, Initial residual = 1.5452e-05, Final residual = 9.84746e-07, No Iterations 417
time step continuity errors : sum local = 3.56394e-10, global = -5.61998e-12, cumulative = 1.53131e-08
ExecutionTime = 209.13 s  ClockTime = 221 s

Time = 1125

Courant Number mean: 0.0364749 max: 0.292171
smoothSolver:  Solving for Ux, Initial residual = 0.00353069, Final residual = 6.32162e-06, No Iterations 1
smoothSolver:  Solving for Uy, Initial residual = 0.00353071, Final residual = 6.3215e-06, No Iterations 1
smoothSolver:  Solving for Uz, Initial residual = 0.00429161, Final residual = 2.56928e-06, No Iterations 1
DICPCG:  Solving for p, Initial residual = 0.000173104, Final residual = 7.08329e-06, No Iterations 431
time step continuity errors : sum local = 2.56435e-09, global = 3.8058e-12, cumulative = 1.53169e-08
DICPCG:  Solving for p, Initial residual = 1.51481e-05, Final residual = 9.23304e-07, No Iterations 418
time step continuity errors : sum local = 3.31307e-10, global = -4.43084e-12, cumulative = 1.53125e-08
ExecutionTime = 213.49 s  ClockTime = 226 s

Time = 1150

Courant Number mean: 0.0364538 max: 0.292185
smoothSolver:  Solving for Ux, Initial residual = 0.00351249, Final residual = 6.1154e-06, No Iterations 1
smoothSolver:  Solving for Uy, Initial residual = 0.00351257, Final residual = 6.11538e-06, No Iterations 1
smoothSolver:  Solving for Uz, Initial residual = 0.00419133, Final residual = 2.50305e-06, No Iterations 1
DICPCG:  Solving for p, Initial residual = 0.000168138, Final residual = 7.751e-06, No Iterations 431
time step continuity errors : sum local = 2.78212e-09, global = 8.61821e-12, cumulative = 1.53211e-08
DICPCG:  Solving for p, Initial residual = 1.5529e-05, Final residual = 9.78585e-07, No Iterations 417
time step continuity errors : sum local = 3.48208e-10, global = -5.63292e-12, cumulative = 1.53155e-08
ExecutionTime = 217.91 s  ClockTime = 230 s

Time = 1175

Courant Number mean: 0.0364329 max: 0.292197
smoothSolver:  Solving for Ux, Initial residual = 0.00349514, Final residual = 5.92373e-06, No Iterations 1
smoothSolver:  Solving for Uy, Initial residual = 0.00349518, Final residual = 5.9236e-06, No Iterations 1
smoothSolver:  Solving for Uz, Initial residual = 0.00409501, Final residual = 2.43975e-06, No Iterations 1
DICPCG:  Solving for p, Initial residual = 0.000163971, Final residual = 7.95057e-06, No Iterations 430
time step continuity errors : sum local = 2.82988e-09, global = 1.60292e-11, cumulative = 1.53315e-08
DICPCG:  Solving for p, Initial residual = 1.54581e-05, Final residual = 9.47114e-07, No Iterations 417
time step continuity errors : sum local = 3.3425e-10, global = -3.45845e-12, cumulative = 1.5328e-08
ExecutionTime = 222.3 s  ClockTime = 234 s

Time = 1200

Courant Number mean: 0.0364122 max: 0.292207
smoothSolver:  Solving for Ux, Initial residual = 0.00347791, Final residual = 5.74353e-06, No Iterations 1
smoothSolver:  Solving for Uy, Initial residual = 0.00347798, Final residual = 5.74335e-06, No Iterations 1
smoothSolver:  Solving for Uz, Initial residual = 0.00400239, Final residual = 2.37913e-06, No Iterations 1
DICPCG:  Solving for p, Initial residual = 0.000160981, Final residual = 7.38082e-06, No Iterations 430
time step continuity errors : sum local = 2.60556e-09, global = -6.86618e-12, cumulative = 1.53212e-08
DICPCG:  Solving for p, Initial residual = 1.48321e-05, Final residual = 9.52412e-07, No Iterations 416
time step continuity errors : sum local = 3.33422e-10, global = -5.39103e-12, cumulative = 1.53158e-08
ExecutionTime = 226.67 s  ClockTime = 239 s

Time = 1225

Courant Number mean: 0.0363917 max: 0.292217
smoothSolver:  Solving for Ux, Initial residual = 0.00346129, Final residual = 5.57248e-06, No Iterations 1
smoothSolver:  Solving for Uy, Initial residual = 0.00346135, Final residual = 5.57236e-06, No Iterations 1
smoothSolver:  Solving for Uz, Initial residual = 0.00391327, Final residual = 2.32108e-06, No Iterations 1
DICPCG:  Solving for p, Initial residual = 0.000158124, Final residual = 7.13909e-06, No Iterations 429
time step continuity errors : sum local = 2.49998e-09, global = -7.35277e-13, cumulative = 1.53151e-08
DICPCG:  Solving for p, Initial residual = 1.45377e-05, Final residual = 9.30555e-07, No Iterations 417
time step continuity errors : sum local = 3.23205e-10, global = -3.95869e-12, cumulative = 1.53111e-08
ExecutionTime = 231.03 s  ClockTime = 243 s

Time = 1250

Courant Number mean: 0.0363714 max: 0.292225
smoothSolver:  Solving for Ux, Initial residual = 0.00344413, Final residual = 5.41128e-06, No Iterations 1
smoothSolver:  Solving for Uy, Initial residual = 0.0034442, Final residual = 5.41115e-06, No Iterations 1
smoothSolver:  Solving for Uz, Initial residual = 0.00382745, Final residual = 2.26546e-06, No Iterations 1
DICPCG:  Solving for p, Initial residual = 0.000155005, Final residual = 7.53506e-06, No Iterations 429
time step continuity errors : sum local = 2.61785e-09, global = 1.49316e-11, cumulative = 1.5326e-08
DICPCG:  Solving for p, Initial residual = 1.47043e-05, Final residual = 9.53473e-07, No Iterations 416
time step continuity errors : sum local = 3.28607e-10, global = -4.26913e-12, cumulative = 1.53218e-08
ExecutionTime = 235.29 s  ClockTime = 248 s

Time = 1275

Courant Number mean: 0.0363512 max: 0.292232
smoothSolver:  Solving for Ux, Initial residual = 0.00342832, Final residual = 5.25555e-06, No Iterations 1
smoothSolver:  Solving for Uy, Initial residual = 0.00342837, Final residual = 5.25538e-06, No Iterations 1
smoothSolver:  Solving for Uz, Initial residual = 0.00374474, Final residual = 2.21228e-06, No Iterations 1
DICPCG:  Solving for p, Initial residual = 0.000152724, Final residual = 6.25054e-06, No Iterations 429
time step continuity errors : sum local = 2.15479e-09, global = -1.71359e-11, cumulative = 1.53046e-08
DICPCG:  Solving for p, Initial residual = 1.3515e-05, Final residual = 9.76551e-07, No Iterations 414
time step continuity errors : sum local = 3.34009e-10, global = -6.24913e-12, cumulative = 1.52984e-08
ExecutionTime = 239.56 s  ClockTime = 252 s

Time = 1300

Courant Number mean: 0.0363312 max: 0.292239
smoothSolver:  Solving for Ux, Initial residual = 0.00341939, Final residual = 5.11007e-06, No Iterations 1
smoothSolver:  Solving for Uy, Initial residual = 0.00341949, Final residual = 5.10999e-06, No Iterations 1
smoothSolver:  Solving for Uz, Initial residual = 0.00366499, Final residual = 2.16127e-06, No Iterations 1
DICPCG:  Solving for p, Initial residual = 0.000150089, Final residual = 6.90822e-06, No Iterations 429
time step continuity errors : sum local = 2.36345e-09, global = -1.08773e-11, cumulative = 1.52875e-08
DICPCG:  Solving for p, Initial residual = 1.3908e-05, Final residual = 9.17621e-07, No Iterations 416
time step continuity errors : sum local = 3.11518e-10, global = -4.44103e-12, cumulative = 1.52831e-08
ExecutionTime = 243.71 s  ClockTime = 256 s

Time = 1325

Courant Number mean: 0.0363113 max: 0.292244
smoothSolver:  Solving for Ux, Initial residual = 0.00341636, Final residual = 4.97056e-06, No Iterations 1
smoothSolver:  Solving for Uy, Initial residual = 0.00341641, Final residual = 4.97043e-06, No Iterations 1
smoothSolver:  Solving for Uz, Initial residual = 0.00358801, Final residual = 2.11227e-06, No Iterations 1
DICPCG:  Solving for p, Initial residual = 0.000148116, Final residual = 7.10987e-06, No Iterations 429
time step continuity errors : sum local = 2.41433e-09, global = 3.69626e-12, cumulative = 1.52867e-08
DICPCG:  Solving for p, Initial residual = 1.39432e-05, Final residual = 9.69718e-07, No Iterations 415
time step continuity errors : sum local = 3.26799e-10, global = -5.09032e-12, cumulative = 1.52817e-08
ExecutionTime = 247.96 s  ClockTime = 261 s

Time = 1350

Courant Number mean: 0.0362916 max: 0.292249
smoothSolver:  Solving for Ux, Initial residual = 0.00341107, Final residual = 4.83796e-06, No Iterations 1
smoothSolver:  Solving for Uy, Initial residual = 0.00341112, Final residual = 4.83789e-06, No Iterations 1
smoothSolver:  Solving for Uz, Initial residual = 0.00351377, Final residual = 2.06506e-06, No Iterations 1
DICPCG:  Solving for p, Initial residual = 0.000145424, Final residual = 6.6522e-06, No Iterations 428
time step continuity errors : sum local = 2.2424e-09, global = 4.11021e-12, cumulative = 1.52858e-08
DICPCG:  Solving for p, Initial residual = 1.33722e-05, Final residual = 9.69387e-07, No Iterations 414
time step continuity errors : sum local = 3.24343e-10, global = -4.80608e-12, cumulative = 1.5281e-08
ExecutionTime = 252.15 s  ClockTime = 265 s

Time = 1375

Courant Number mean: 0.0362721 max: 0.292254
smoothSolver:  Solving for Ux, Initial residual = 0.00340395, Final residual = 4.71387e-06, No Iterations 1
smoothSolver:  Solving for Uy, Initial residual = 0.00340397, Final residual = 4.71383e-06, No Iterations 1
smoothSolver:  Solving for Uz, Initial residual = 0.00344339, Final residual = 2.01984e-06, No Iterations 1
DICPCG:  Solving for p, Initial residual = 0.000143178, Final residual = 6.81769e-06, No Iterations 426
time step continuity errors : sum local = 2.28168e-09, global = -1.21691e-11, cumulative = 1.52688e-08
DICPCG:  Solving for p, Initial residual = 1.33795e-05, Final residual = 9.88596e-07, No Iterations 412
time step continuity errors : sum local = 3.28438e-10, global = -7.22812e-12, cumulative = 1.52616e-08
ExecutionTime = 256.77 s  ClockTime = 270 s

Time = 1400

Courant Number mean: 0.0362527 max: 0.292258
smoothSolver:  Solving for Ux, Initial residual = 0.00339655, Final residual = 4.59589e-06, No Iterations 1
smoothSolver:  Solving for Uy, Initial residual = 0.00339653, Final residual = 4.59584e-06, No Iterations 1
smoothSolver:  Solving for Uz, Initial residual = 0.00337551, Final residual = 1.97651e-06, No Iterations 1
DICPCG:  Solving for p, Initial residual = 0.000140932, Final residual = 7.0044e-06, No Iterations 428
time step continuity errors : sum local = 2.32763e-09, global = 3.93651e-12, cumulative = 1.52655e-08
DICPCG:  Solving for p, Initial residual = 1.34197e-05, Final residual = 9.68163e-07, No Iterations 414
time step continuity errors : sum local = 3.19422e-10, global = -4.45497e-12, cumulative = 1.5261e-08
ExecutionTime = 261.86 s  ClockTime = 276 s

Time = 1425

Courant Number mean: 0.0362335 max: 0.292262
smoothSolver:  Solving for Ux, Initial residual = 0.0033886, Final residual = 4.48264e-06, No Iterations 1
smoothSolver:  Solving for Uy, Initial residual = 0.00338868, Final residual = 4.48259e-06, No Iterations 1
smoothSolver:  Solving for Uz, Initial residual = 0.00331022, Final residual = 1.9349e-06, No Iterations 1
DICPCG:  Solving for p, Initial residual = 0.00013888, Final residual = 6.60969e-06, No Iterations 426
time step continuity errors : sum local = 2.18124e-09, global = -6.7867e-12, cumulative = 1.52543e-08
DICPCG:  Solving for p, Initial residual = 1.29551e-05, Final residual = 9.79824e-07, No Iterations 411
time step continuity errors : sum local = 3.21067e-10, global = -6.79413e-12, cumulative = 1.52475e-08
ExecutionTime = 266.87 s  ClockTime = 282 s

Time = 1450

Courant Number mean: 0.0362144 max: 0.292265
smoothSolver:  Solving for Ux, Initial residual = 0.00337957, Final residual = 4.37379e-06, No Iterations 1
smoothSolver:  Solving for Uy, Initial residual = 0.00337959, Final residual = 4.37375e-06, No Iterations 1
smoothSolver:  Solving for Uz, Initial residual = 0.00324961, Final residual = 1.89495e-06, No Iterations 1
DICPCG:  Solving for p, Initial residual = 0.000137325, Final residual = 5.38103e-06, No Iterations 427
time step continuity errors : sum local = 1.76367e-09, global = -1.20063e-11, cumulative = 1.52355e-08
DICPCG:  Solving for p, Initial residual = 1.18822e-05, Final residual = 9.98976e-07, No Iterations 411
time step continuity errors : sum local = 3.25151e-10, global = -6.7339e-12, cumulative = 1.52287e-08
ExecutionTime = 272.19 s  ClockTime = 288 s

Time = 1475

Courant Number mean: 0.0361954 max: 0.292268
smoothSolver:  Solving for Ux, Initial residual = 0.00336966, Final residual = 4.27527e-06, No Iterations 1
smoothSolver:  Solving for Uy, Initial residual = 0.00336967, Final residual = 4.27525e-06, No Iterations 1
smoothSolver:  Solving for Uz, Initial residual = 0.00319092, Final residual = 1.85631e-06, No Iterations 1
DICPCG:  Solving for p, Initial residual = 0.000135722, Final residual = 5.71165e-06, No Iterations 427
time step continuity errors : sum local = 1.85949e-09, global = 3.68417e-12, cumulative = 1.52324e-08
DICPCG:  Solving for p, Initial residual = 1.20553e-05, Final residual = 9.6268e-07, No Iterations 412
time step continuity errors : sum local = 3.11274e-10, global = -5.93583e-12, cumulative = 1.52265e-08
ExecutionTime = 277.24 s  ClockTime = 294 s

Time = 1500

Courant Number mean: 0.0361766 max: 0.29227
smoothSolver:  Solving for Ux, Initial residual = 0.00335745, Final residual = 4.17437e-06, No Iterations 1
smoothSolver:  Solving for Uy, Initial residual = 0.0033575, Final residual = 4.17431e-06, No Iterations 1
smoothSolver:  Solving for Uz, Initial residual = 0.00313402, Final residual = 1.81891e-06, No Iterations 1
DICPCG:  Solving for p, Initial residual = 0.0001331, Final residual = 6.1332e-06, No Iterations 429
time step continuity errors : sum local = 1.98358e-09, global = 4.96749e-12, cumulative = 1.52314e-08
DICPCG:  Solving for p, Initial residual = 1.22921e-05, Final residual = 9.91623e-07, No Iterations 34
time step continuity errors : sum local = 3.18557e-10, global = -5.05463e-11, cumulative = 1.51809e-08
ExecutionTime = 280.29 s  ClockTime = 298 s

Time = 1525

Courant Number mean: 0.0361579 max: 0.292273
smoothSolver:  Solving for Ux, Initial residual = 0.0033478, Final residual = 4.08544e-06, No Iterations 1
smoothSolver:  Solving for Uy, Initial residual = 0.00334786, Final residual = 4.08543e-06, No Iterations 1
smoothSolver:  Solving for Uz, Initial residual = 0.00307865, Final residual = 1.78296e-06, No Iterations 1
DICPCG:  Solving for p, Initial residual = 0.000131505, Final residual = 6.1063e-06, No Iterations 426
time step continuity errors : sum local = 1.96155e-09, global = 4.64094e-12, cumulative = 1.51855e-08
DICPCG:  Solving for p, Initial residual = 1.20485e-05, Final residual = 9.94778e-07, No Iterations 34
time step continuity errors : sum local = 3.17624e-10, global = -5.04068e-11, cumulative = 1.51351e-08
ExecutionTime = 283.29 s  ClockTime = 302 s

Time = 1550

Courant Number mean: 0.0361394 max: 0.292275
smoothSolver:  Solving for Ux, Initial residual = 0.00332878, Final residual = 3.99209e-06, No Iterations 1
smoothSolver:  Solving for Uy, Initial residual = 0.00332887, Final residual = 3.99203e-06, No Iterations 1
smoothSolver:  Solving for Uz, Initial residual = 0.00302524, Final residual = 1.74779e-06, No Iterations 1
DICPCG:  Solving for p, Initial residual = 0.000128523, Final residual = 6.28763e-06, No Iterations 428
time step continuity errors : sum local = 2.0075e-09, global = 8.02352e-12, cumulative = 1.51432e-08
DICPCG:  Solving for p, Initial residual = 1.21205e-05, Final residual = 9.96596e-07, No Iterations 33
time step continuity errors : sum local = 3.16201e-10, global = -4.79949e-11, cumulative = 1.50952e-08
ExecutionTime = 286.31 s  ClockTime = 306 s

Time = 1575

Courant Number mean: 0.036121 max: 0.292277
smoothSolver:  Solving for Ux, Initial residual = 0.00331366, Final residual = 3.90789e-06, No Iterations 1
smoothSolver:  Solving for Uy, Initial residual = 0.00331376, Final residual = 3.90791e-06, No Iterations 1
smoothSolver:  Solving for Uz, Initial residual = 0.00297319, Final residual = 1.71392e-06, No Iterations 1
DICPCG:  Solving for p, Initial residual = 0.000126764, Final residual = 6.09202e-06, No Iterations 428
time step continuity errors : sum local = 1.9328e-09, global = 1.65996e-11, cumulative = 1.51118e-08
DICPCG:  Solving for p, Initial residual = 1.18561e-05, Final residual = 9.76513e-07, No Iterations 33
time step continuity errors : sum local = 3.07921e-10, global = -4.64956e-11, cumulative = 1.50653e-08
ExecutionTime = 288.97 s  ClockTime = 309 s

Time = 1600

Courant Number mean: 0.0361028 max: 0.292279
smoothSolver:  Solving for Ux, Initial residual = 0.00329714, Final residual = 3.8251e-06, No Iterations 1
smoothSolver:  Solving for Uy, Initial residual = 0.00329725, Final residual = 3.82508e-06, No Iterations 1
smoothSolver:  Solving for Uz, Initial residual = 0.00292264, Final residual = 1.6811e-06, No Iterations 1
DICPCG:  Solving for p, Initial residual = 0.000124877, Final residual = 5.53787e-06, No Iterations 429
time step continuity errors : sum local = 1.74616e-09, global = 1.94136e-11, cumulative = 1.50847e-08
DICPCG:  Solving for p, Initial residual = 1.13004e-05, Final residual = 9.72618e-07, No Iterations 33
time step continuity errors : sum local = 3.04829e-10, global = -4.60747e-11, cumulative = 1.50386e-08
ExecutionTime = 291.65 s  ClockTime = 311 s

Time = 1625

Courant Number mean: 0.0360846 max: 0.292281
smoothSolver:  Solving for Ux, Initial residual = 0.00327953, Final residual = 3.74692e-06, No Iterations 1
smoothSolver:  Solving for Uy, Initial residual = 0.00327963, Final residual = 3.74687e-06, No Iterations 1
smoothSolver:  Solving for Uz, Initial residual = 0.0028735, Final residual = 1.64948e-06, No Iterations 1
DICPCG:  Solving for p, Initial residual = 0.000122896, Final residual = 5.76633e-06, No Iterations 428
time step continuity errors : sum local = 1.80715e-09, global = 2.0839e-11, cumulative = 1.50594e-08
DICPCG:  Solving for p, Initial residual = 1.13947e-05, Final residual = 9.54668e-07, No Iterations 33
time step continuity errors : sum local = 2.97415e-10, global = -4.52962e-11, cumulative = 1.50141e-08
ExecutionTime = 294.43 s  ClockTime = 314 s

Time = 1650

Courant Number mean: 0.0360666 max: 0.292282
smoothSolver:  Solving for Ux, Initial residual = 0.00326038, Final residual = 3.67055e-06, No Iterations 1
smoothSolver:  Solving for Uy, Initial residual = 0.00326051, Final residual = 3.67054e-06, No Iterations 1
smoothSolver:  Solving for Uz, Initial residual = 0.00282572, Final residual = 1.61902e-06, No Iterations 1
DICPCG:  Solving for p, Initial residual = 0.000121679, Final residual = 5.57731e-06, No Iterations 429
time step continuity errors : sum local = 1.73747e-09, global = 2.32234e-11, cumulative = 1.50374e-08
DICPCG:  Solving for p, Initial residual = 1.11633e-05, Final residual = 9.5584e-07, No Iterations 33
time step continuity errors : sum local = 2.96027e-10, global = -4.42034e-11, cumulative = 1.49932e-08
ExecutionTime = 297.22 s  ClockTime = 317 s

Time = 1675

Courant Number mean: 0.0360488 max: 0.292284
smoothSolver:  Solving for Ux, Initial residual = 0.00324067, Final residual = 3.59795e-06, No Iterations 1
smoothSolver:  Solving for Uy, Initial residual = 0.00324082, Final residual = 3.59793e-06, No Iterations 1
smoothSolver:  Solving for Uz, Initial residual = 0.00277924, Final residual = 1.58961e-06, No Iterations 1
DICPCG:  Solving for p, Initial residual = 0.000120023, Final residual = 5.44093e-06, No Iterations 426
time step continuity errors : sum local = 1.685e-09, global = 1.21959e-11, cumulative = 1.50054e-08
DICPCG:  Solving for p, Initial residual = 1.09294e-05, Final residual = 9.617e-07, No Iterations 33
time step continuity errors : sum local = 2.96115e-10, global = -4.51149e-11, cumulative = 1.49602e-08
ExecutionTime = 300.02 s  ClockTime = 320 s

Time = 1700

Courant Number mean: 0.036031 max: 0.292285
smoothSolver:  Solving for Ux, Initial residual = 0.00322018, Final residual = 3.52804e-06, No Iterations 1
smoothSolver:  Solving for Uy, Initial residual = 0.00322032, Final residual = 3.52804e-06, No Iterations 1
smoothSolver:  Solving for Uz, Initial residual = 0.00273401, Final residual = 1.56101e-06, No Iterations 1
DICPCG:  Solving for p, Initial residual = 0.000118826, Final residual = 5.00076e-06, No Iterations 429
time step continuity errors : sum local = 1.53971e-09, global = 1.07216e-11, cumulative = 1.4971e-08
DICPCG:  Solving for p, Initial residual = 1.05405e-05, Final residual = 9.47465e-07, No Iterations 33
time step continuity errors : sum local = 2.90066e-10, global = -4.35241e-11, cumulative = 1.49274e-08
ExecutionTime = 302.87 s  ClockTime = 323 s

Time = 1725

Courant Number mean: 0.0360134 max: 0.292286
smoothSolver:  Solving for Ux, Initial residual = 0.00319992, Final residual = 3.46138e-06, No Iterations 1
smoothSolver:  Solving for Uy, Initial residual = 0.00320009, Final residual = 3.46139e-06, No Iterations 1
smoothSolver:  Solving for Uz, Initial residual = 0.00268999, Final residual = 1.53323e-06, No Iterations 1
DICPCG:  Solving for p, Initial residual = 0.000116734, Final residual = 4.60423e-06, No Iterations 425
time step continuity errors : sum local = 1.40953e-09, global = -1.074e-11, cumulative = 1.49167e-08
DICPCG:  Solving for p, Initial residual = 1.01281e-05, Final residual = 9.44933e-07, No Iterations 33
time step continuity errors : sum local = 2.87664e-10, global = -4.48028e-11, cumulative = 1.48719e-08
ExecutionTime = 305.79 s  ClockTime = 327 s

Time = 1750

Courant Number mean: 0.0359959 max: 0.292287
smoothSolver:  Solving for Ux, Initial residual = 0.00317841, Final residual = 3.39673e-06, No Iterations 1
smoothSolver:  Solving for Uy, Initial residual = 0.00317854, Final residual = 3.39674e-06, No Iterations 1
smoothSolver:  Solving for Uz, Initial residual = 0.00264733, Final residual = 1.50622e-06, No Iterations 1
DICPCG:  Solving for p, Initial residual = 0.000115104, Final residual = 4.9643e-06, No Iterations 429
time step continuity errors : sum local = 1.51121e-09, global = 1.02189e-11, cumulative = 1.48821e-08
DICPCG:  Solving for p, Initial residual = 1.03183e-05, Final residual = 9.5091e-07, No Iterations 33
time step continuity errors : sum local = 2.8788e-10, global = -4.18981e-11, cumulative = 1.48402e-08
ExecutionTime = 308.65 s  ClockTime = 330 s

Time = 1775

Courant Number mean: 0.0359785 max: 0.292289
smoothSolver:  Solving for Ux, Initial residual = 0.00315645, Final residual = 3.33485e-06, No Iterations 1
smoothSolver:  Solving for Uy, Initial residual = 0.00315659, Final residual = 3.33487e-06, No Iterations 1
smoothSolver:  Solving for Uz, Initial residual = 0.00260753, Final residual = 1.4802e-06, No Iterations 1
DICPCG:  Solving for p, Initial residual = 0.000113152, Final residual = 4.98584e-06, No Iterations 430
time step continuity errors : sum local = 1.50936e-09, global = 2.03095e-11, cumulative = 1.48605e-08
DICPCG:  Solving for p, Initial residual = 1.02465e-05, Final residual = 9.16196e-07, No Iterations 33
time step continuity errors : sum local = 2.75857e-10, global = -4.042e-11, cumulative = 1.48201e-08
ExecutionTime = 311.41 s  ClockTime = 333 s

Time = 1800

Courant Number mean: 0.0359613 max: 0.29229
smoothSolver:  Solving for Ux, Initial residual = 0.00313289, Final residual = 3.2734e-06, No Iterations 1
smoothSolver:  Solving for Uy, Initial residual = 0.00313302, Final residual = 3.27345e-06, No Iterations 1
smoothSolver:  Solving for Uz, Initial residual = 0.00256883, Final residual = 1.45493e-06, No Iterations 1
DICPCG:  Solving for p, Initial residual = 0.000111726, Final residual = 4.84352e-06, No Iterations 430
time step continuity errors : sum local = 1.45828e-09, global = 2.20002e-11, cumulative = 1.48421e-08
DICPCG:  Solving for p, Initial residual = 1.00411e-05, Final residual = 9.91706e-07, No Iterations 25
time step continuity errors : sum local = 2.96985e-10, global = -5.09542e-11, cumulative = 1.47912e-08
ExecutionTime = 313.93 s  ClockTime = 336 s

Time = 1825

Courant Number mean: 0.0359441 max: 0.292291
smoothSolver:  Solving for Ux, Initial residual = 0.00311, Final residual = 3.21429e-06, No Iterations 1
smoothSolver:  Solving for Uy, Initial residual = 0.00311015, Final residual = 3.21432e-06, No Iterations 1
smoothSolver:  Solving for Uz, Initial residual = 0.0025311, Final residual = 1.43039e-06, No Iterations 1
DICPCG:  Solving for p, Initial residual = 0.000111556, Final residual = 5.5601e-06, No Iterations 429
time step continuity errors : sum local = 1.66501e-09, global = 3.44821e-11, cumulative = 1.48256e-08
DICPCG:  Solving for p, Initial residual = 1.05794e-05, Final residual = 9.98567e-07, No Iterations 32
time step continuity errors : sum local = 2.97455e-10, global = -3.63207e-11, cumulative = 1.47893e-08
ExecutionTime = 316.38 s  ClockTime = 338 s

Time = 1850

Courant Number mean: 0.0359271 max: 0.292292
smoothSolver:  Solving for Ux, Initial residual = 0.00308727, Final residual = 3.15855e-06, No Iterations 1
smoothSolver:  Solving for Uy, Initial residual = 0.00308741, Final residual = 3.1586e-06, No Iterations 1
smoothSolver:  Solving for Uz, Initial residual = 0.00249454, Final residual = 1.40657e-06, No Iterations 1
DICPCG:  Solving for p, Initial residual = 0.000109441, Final residual = 5.42796e-06, No Iterations 429
time step continuity errors : sum local = 1.61683e-09, global = 1.99205e-11, cumulative = 1.48092e-08
DICPCG:  Solving for p, Initial residual = 1.03864e-05, Final residual = 9.90996e-07, No Iterations 32
time step continuity errors : sum local = 2.93656e-10, global = -3.65401e-11, cumulative = 1.47727e-08
ExecutionTime = 318.83 s  ClockTime = 341 s

Time = 1875

Courant Number mean: 0.0359102 max: 0.292293
smoothSolver:  Solving for Ux, Initial residual = 0.003062, Final residual = 3.10218e-06, No Iterations 1
smoothSolver:  Solving for Uy, Initial residual = 0.00306216, Final residual = 3.10223e-06, No Iterations 1
smoothSolver:  Solving for Uz, Initial residual = 0.00246034, Final residual = 1.38349e-06, No Iterations 1
DICPCG:  Solving for p, Initial residual = 0.00010748, Final residual = 5.34596e-06, No Iterations 427
time step continuity errors : sum local = 1.58408e-09, global = 1.36486e-11, cumulative = 1.47863e-08
DICPCG:  Solving for p, Initial residual = 1.02667e-05, Final residual = 9.19678e-07, No Iterations 22
time step continuity errors : sum local = 2.71119e-10, global = -4.69696e-11, cumulative = 1.47394e-08
ExecutionTime = 321.27 s  ClockTime = 343 s

Time = 1900

Courant Number mean: 0.0358934 max: 0.292293
smoothSolver:  Solving for Ux, Initial residual = 0.00303782, Final residual = 3.04934e-06, No Iterations 1
smoothSolver:  Solving for Uy, Initial residual = 0.00303799, Final residual = 3.04934e-06, No Iterations 1
smoothSolver:  Solving for Uz, Initial residual = 0.0024271, Final residual = 1.3612e-06, No Iterations 1
DICPCG:  Solving for p, Initial residual = 0.000106522, Final residual = 4.94425e-06, No Iterations 430
time step continuity errors : sum local = 1.4575e-09, global = 1.96381e-11, cumulative = 1.4759e-08
DICPCG:  Solving for p, Initial residual = 9.83018e-06, Final residual = 9.96742e-07, No Iterations 20
time step continuity errors : sum local = 2.92344e-10, global = -5.63425e-11, cumulative = 1.47027e-08
ExecutionTime = 323.58 s  ClockTime = 345 s

Time = 1925

Courant Number mean: 0.0358767 max: 0.292294
smoothSolver:  Solving for Ux, Initial residual = 0.00301458, Final residual = 2.99644e-06, No Iterations 1
smoothSolver:  Solving for Uy, Initial residual = 0.00301473, Final residual = 2.99649e-06, No Iterations 1
smoothSolver:  Solving for Uz, Initial residual = 0.00239464, Final residual = 1.33978e-06, No Iterations 1
DICPCG:  Solving for p, Initial residual = 0.000104923, Final residual = 4.98897e-06, No Iterations 429
time step continuity errors : sum local = 1.46321e-09, global = 1.19542e-11, cumulative = 1.47146e-08
DICPCG:  Solving for p, Initial residual = 9.80442e-06, Final residual = 9.70711e-07, No Iterations 25
time step continuity errors : sum local = 2.83283e-10, global = -4.57679e-11, cumulative = 1.46689e-08
ExecutionTime = 326.03 s  ClockTime = 348 s

Time = 1950

Courant Number mean: 0.0358601 max: 0.292295
smoothSolver:  Solving for Ux, Initial residual = 0.00299054, Final residual = 2.94693e-06, No Iterations 1
smoothSolver:  Solving for Uy, Initial residual = 0.0029907, Final residual = 2.94699e-06, No Iterations 1
smoothSolver:  Solving for Uz, Initial residual = 0.00236291, Final residual = 1.31894e-06, No Iterations 1
DICPCG:  Solving for p, Initial residual = 0.000102971, Final residual = 4.84873e-06, No Iterations 430
time step continuity errors : sum local = 1.41496e-09, global = 3.40203e-11, cumulative = 1.47029e-08
DICPCG:  Solving for p, Initial residual = 9.59848e-06, Final residual = 9.7124e-07, No Iterations 22
time step continuity errors : sum local = 2.82037e-10, global = -4.19805e-11, cumulative = 1.46609e-08
ExecutionTime = 328.38 s  ClockTime = 350 s

Time = 1975

Courant Number mean: 0.0358436 max: 0.292296
smoothSolver:  Solving for Ux, Initial residual = 0.00296579, Final residual = 2.89837e-06, No Iterations 1
smoothSolver:  Solving for Uy, Initial residual = 0.00296596, Final residual = 2.89846e-06, No Iterations 1
smoothSolver:  Solving for Uz, Initial residual = 0.00233188, Final residual = 1.29868e-06, No Iterations 1
DICPCG:  Solving for p, Initial residual = 0.000101977, Final residual = 5.01203e-06, No Iterations 425
time step continuity errors : sum local = 1.45538e-09, global = -6.07783e-12, cumulative = 1.46548e-08
DICPCG:  Solving for p, Initial residual = 9.70433e-06, Final residual = 9.76709e-07, No Iterations 20
time step continuity errors : sum local = 2.82242e-10, global = -5.39325e-11, cumulative = 1.46009e-08
ExecutionTime = 330.8 s  ClockTime = 353 s

Time = 2000

Courant Number mean: 0.0358272 max: 0.292297
smoothSolver:  Solving for Ux, Initial residual = 0.00294105, Final residual = 2.84985e-06, No Iterations 1
smoothSolver:  Solving for Uy, Initial residual = 0.00294122, Final residual = 2.84991e-06, No Iterations 1
smoothSolver:  Solving for Uz, Initial residual = 0.00230155, Final residual = 1.27897e-06, No Iterations 1
DICPCG:  Solving for p, Initial residual = 0.000101198, Final residual = 4.85548e-06, No Iterations 426
time step continuity errors : sum local = 1.40305e-09, global = 1.53476e-12, cumulative = 1.46024e-08
DICPCG:  Solving for p, Initial residual = 9.49264e-06, Final residual = 9.75328e-07, No Iterations 19
time step continuity errors : sum local = 2.80487e-10, global = -5.54903e-11, cumulative = 1.45469e-08
ExecutionTime = 333.21 s  ClockTime = 355 s

Time = 2025

Courant Number mean: 0.035811 max: 0.292298
smoothSolver:  Solving for Ux, Initial residual = 0.00291761, Final residual = 2.80417e-06, No Iterations 1
smoothSolver:  Solving for Uy, Initial residual = 0.00291779, Final residual = 2.80423e-06, No Iterations 1
smoothSolver:  Solving for Uz, Initial residual = 0.00227187, Final residual = 1.25994e-06, No Iterations 1
DICPCG:  Solving for p, Initial residual = 9.92111e-05, Final residual = 4.26982e-06, No Iterations 425
time step continuity errors : sum local = 1.22788e-09, global = 3.28036e-12, cumulative = 1.45502e-08
DICPCG:  Solving for p, Initial residual = 8.96363e-06, Final residual = 9.16894e-07, No Iterations 22
time step continuity errors : sum local = 2.62431e-10, global = -4.04952e-11, cumulative = 1.45097e-08
ExecutionTime = 335.85 s  ClockTime = 358 s

Time = 2050

Courant Number mean: 0.0357948 max: 0.292298
smoothSolver:  Solving for Ux, Initial residual = 0.00289396, Final residual = 2.76078e-06, No Iterations 1
smoothSolver:  Solving for Uy, Initial residual = 0.00289415, Final residual = 2.76088e-06, No Iterations 1
smoothSolver:  Solving for Uz, Initial residual = 0.00224283, Final residual = 1.2419e-06, No Iterations 1
DICPCG:  Solving for p, Initial residual = 9.78727e-05, Final residual = 4.29955e-06, No Iterations 427
time step continuity errors : sum local = 1.23056e-09, global = 2.24369e-11, cumulative = 1.45322e-08
DICPCG:  Solving for p, Initial residual = 8.94205e-06, Final residual = 9.7592e-07, No Iterations 19
time step continuity errors : sum local = 2.78018e-10, global = -5.35255e-11, cumulative = 1.44786e-08
ExecutionTime = 338.44 s  ClockTime = 361 s

Time = 2075

Courant Number mean: 0.0357788 max: 0.292299
smoothSolver:  Solving for Ux, Initial residual = 0.00286865, Final residual = 2.71439e-06, No Iterations 1
smoothSolver:  Solving for Uy, Initial residual = 0.00286878, Final residual = 2.71444e-06, No Iterations 1
smoothSolver:  Solving for Uz, Initial residual = 0.00221441, Final residual = 1.22449e-06, No Iterations 1
DICPCG:  Solving for p, Initial residual = 9.76986e-05, Final residual = 3.96589e-06, No Iterations 425
time step continuity errors : sum local = 1.12975e-09, global = -1.52435e-12, cumulative = 1.44771e-08
DICPCG:  Solving for p, Initial residual = 8.63407e-06, Final residual = 8.99011e-07, No Iterations 22
time step continuity errors : sum local = 2.54923e-10, global = -3.91138e-11, cumulative = 1.4438e-08
ExecutionTime = 341.27 s  ClockTime = 364 s

Time = 2100

Courant Number mean: 0.0357628 max: 0.2923
smoothSolver:  Solving for Ux, Initial residual = 0.0028452, Final residual = 2.67352e-06, No Iterations 1
smoothSolver:  Solving for Uy, Initial residual = 0.00284538, Final residual = 2.67365e-06, No Iterations 1
smoothSolver:  Solving for Uz, Initial residual = 0.00218659, Final residual = 1.20759e-06, No Iterations 1
DICPCG:  Solving for p, Initial residual = 9.55094e-05, Final residual = 4.43977e-06, No Iterations 430
time step continuity errors : sum local = 1.2589e-09, global = 2.2803e-11, cumulative = 1.44608e-08
DICPCG:  Solving for p, Initial residual = 8.89371e-06, Final residual = 9.90848e-07, No Iterations 18
time step continuity errors : sum local = 2.79683e-10, global = -4.27548e-11, cumulative = 1.4418e-08
ExecutionTime = 343.85 s  ClockTime = 367 s

Time = 2125

Courant Number mean: 0.035747 max: 0.292301
smoothSolver:  Solving for Ux, Initial residual = 0.00282047, Final residual = 2.62892e-06, No Iterations 1
smoothSolver:  Solving for Uy, Initial residual = 0.00282064, Final residual = 2.629e-06, No Iterations 1
smoothSolver:  Solving for Uz, Initial residual = 0.00215934, Final residual = 1.1912e-06, No Iterations 1
DICPCG:  Solving for p, Initial residual = 9.41244e-05, Final residual = 3.80588e-06, No Iterations 425
time step continuity errors : sum local = 1.07423e-09, global = -5.68103e-15, cumulative = 1.4418e-08
DICPCG:  Solving for p, Initial residual = 8.37191e-06, Final residual = 9.99715e-07, No Iterations 19
time step continuity errors : sum local = 2.80915e-10, global = -5.33658e-11, cumulative = 1.43647e-08
ExecutionTime = 346.41 s  ClockTime = 370 s

Time = 2150

Courant Number mean: 0.0357312 max: 0.292301
smoothSolver:  Solving for Ux, Initial residual = 0.00279599, Final residual = 2.5885e-06, No Iterations 1
smoothSolver:  Solving for Uy, Initial residual = 0.00279616, Final residual = 2.58854e-06, No Iterations 1
smoothSolver:  Solving for Uz, Initial residual = 0.00213267, Final residual = 1.17531e-06, No Iterations 1
DICPCG:  Solving for p, Initial residual = 9.31434e-05, Final residual = 4.23108e-06, No Iterations 430
time step continuity errors : sum local = 1.18887e-09, global = 1.8567e-11, cumulative = 1.43832e-08
DICPCG:  Solving for p, Initial residual = 8.61481e-06, Final residual = 9.69519e-07, No Iterations 18
time step continuity errors : sum local = 2.71219e-10, global = -4.16101e-11, cumulative = 1.43416e-08
ExecutionTime = 348.8 s  ClockTime = 372 s

Time = 2175

Courant Number mean: 0.0357156 max: 0.292302
smoothSolver:  Solving for Ux, Initial residual = 0.00277144, Final residual = 2.54705e-06, No Iterations 1
smoothSolver:  Solving for Uy, Initial residual = 0.00277163, Final residual = 2.54714e-06, No Iterations 1
smoothSolver:  Solving for Uz, Initial residual = 0.00210653, Final residual = 1.15988e-06, No Iterations 1
DICPCG:  Solving for p, Initial residual = 9.35277e-05, Final residual = 3.91376e-06, No Iterations 425
time step continuity errors : sum local = 1.09482e-09, global = -2.5978e-12, cumulative = 1.4339e-08
DICPCG:  Solving for p, Initial residual = 8.37742e-06, Final residual = 9.60849e-07, No Iterations 19
time step continuity errors : sum local = 2.67613e-10, global = -5.08149e-11, cumulative = 1.42882e-08
ExecutionTime = 351.25 s  ClockTime = 375 s

Time = 2200

Courant Number mean: 0.0357 max: 0.292303
smoothSolver:  Solving for Ux, Initial residual = 0.00274824, Final residual = 2.5084e-06, No Iterations 1
smoothSolver:  Solving for Uy, Initial residual = 0.00274842, Final residual = 2.50842e-06, No Iterations 1
smoothSolver:  Solving for Uz, Initial residual = 0.00208091, Final residual = 1.14476e-06, No Iterations 1
DICPCG:  Solving for p, Initial residual = 9.14223e-05, Final residual = 4.08469e-06, No Iterations 431
time step continuity errors : sum local = 1.13762e-09, global = 1.67959e-11, cumulative = 1.4305e-08
DICPCG:  Solving for p, Initial residual = 8.38406e-06, Final residual = 9.64401e-07, No Iterations 18
time step continuity errors : sum local = 2.67438e-10, global = -4.22643e-11, cumulative = 1.42627e-08
ExecutionTime = 353.65 s  ClockTime = 377 s

Time = 2225

Courant Number mean: 0.0356846 max: 0.292303
smoothSolver:  Solving for Ux, Initial residual = 0.00272288, Final residual = 2.46907e-06, No Iterations 1
smoothSolver:  Solving for Uy, Initial residual = 0.00272309, Final residual = 2.46913e-06, No Iterations 1
smoothSolver:  Solving for Uz, Initial residual = 0.00205581, Final residual = 1.13e-06, No Iterations 1
DICPCG:  Solving for p, Initial residual = 9.02024e-05, Final residual = 4.49485e-06, No Iterations 425
time step continuity errors : sum local = 1.24643e-09, global = 2.19409e-13, cumulative = 1.4263e-08
DICPCG:  Solving for p, Initial residual = 8.69875e-06, Final residual = 9.33118e-07, No Iterations 19
time step continuity errors : sum local = 2.57655e-10, global = -4.86683e-11, cumulative = 1.42143e-08
ExecutionTime = 356.12 s  ClockTime = 380 s

Time = 2250

Courant Number mean: 0.0356692 max: 0.292304
smoothSolver:  Solving for Ux, Initial residual = 0.00269869, Final residual = 2.43198e-06, No Iterations 1
smoothSolver:  Solving for Uy, Initial residual = 0.00269893, Final residual = 2.43199e-06, No Iterations 1
smoothSolver:  Solving for Uz, Initial residual = 0.0020312, Final residual = 1.11583e-06, No Iterations 1
DICPCG:  Solving for p, Initial residual = 8.90572e-05, Final residual = 4.22711e-06, No Iterations 430
time step continuity errors : sum local = 1.16717e-09, global = 2.31418e-11, cumulative = 1.42374e-08
DICPCG:  Solving for p, Initial residual = 8.41507e-06, Final residual = 9.18955e-07, No Iterations 18
time step continuity errors : sum local = 2.52671e-10, global = -3.93547e-11, cumulative = 1.41981e-08
ExecutionTime = 358.41 s  ClockTime = 382 s

Time = 2275

Courant Number mean: 0.0356539 max: 0.292305
smoothSolver:  Solving for Ux, Initial residual = 0.00267375, Final residual = 2.39465e-06, No Iterations 1
smoothSolver:  Solving for Uy, Initial residual = 0.00267406, Final residual = 2.39476e-06, No Iterations 1
smoothSolver:  Solving for Uz, Initial residual = 0.00200706, Final residual = 1.10208e-06, No Iterations 1
DICPCG:  Solving for p, Initial residual = 8.80741e-05, Final residual = 3.99718e-06, No Iterations 429
time step continuity errors : sum local = 1.09901e-09, global = 1.5335e-11, cumulative = 1.42134e-08
DICPCG:  Solving for p, Initial residual = 8.1873e-06, Final residual = 9.30162e-07, No Iterations 18
time step continuity errors : sum local = 2.54685e-10, global = -3.91402e-11, cumulative = 1.41743e-08
ExecutionTime = 360.9 s  ClockTime = 384 s

Time = 2300

Courant Number mean: 0.0356387 max: 0.292305
smoothSolver:  Solving for Ux, Initial residual = 0.00264949, Final residual = 2.35895e-06, No Iterations 1
smoothSolver:  Solving for Uy, Initial residual = 0.00264979, Final residual = 2.35898e-06, No Iterations 1
smoothSolver:  Solving for Uz, Initial residual = 0.00198339, Final residual = 1.08864e-06, No Iterations 1
DICPCG:  Solving for p, Initial residual = 8.68248e-05, Final residual = 3.94775e-06, No Iterations 425
time step continuity errors : sum local = 1.08089e-09, global = 1.26792e-11, cumulative = 1.4187e-08
DICPCG:  Solving for p, Initial residual = 8.09751e-06, Final residual = 9.75019e-07, No Iterations 18
time step continuity errors : sum local = 2.65865e-10, global = -3.83475e-11, cumulative = 1.41486e-08
ExecutionTime = 363.29 s  ClockTime = 387 s

Time = 2325

Courant Number mean: 0.0356237 max: 0.292306
smoothSolver:  Solving for Ux, Initial residual = 0.00262475, Final residual = 2.32419e-06, No Iterations 1
smoothSolver:  Solving for Uy, Initial residual = 0.00262502, Final residual = 2.3243e-06, No Iterations 1
smoothSolver:  Solving for Uz, Initial residual = 0.00196017, Final residual = 1.07546e-06, No Iterations 1
DICPCG:  Solving for p, Initial residual = 8.58965e-05, Final residual = 4.10752e-06, No Iterations 423
time step continuity errors : sum local = 1.11999e-09, global = -1.38382e-11, cumulative = 1.41348e-08
DICPCG:  Solving for p, Initial residual = 8.19888e-06, Final residual = 9.45586e-07, No Iterations 19
time step continuity errors : sum local = 2.56788e-10, global = -4.79153e-11, cumulative = 1.40869e-08
ExecutionTime = 365.7 s  ClockTime = 389 s

Time = 2350

Courant Number mean: 0.0356087 max: 0.292307
smoothSolver:  Solving for Ux, Initial residual = 0.00260013, Final residual = 2.28977e-06, No Iterations 1
smoothSolver:  Solving for Uy, Initial residual = 0.00260042, Final residual = 2.2898e-06, No Iterations 1
smoothSolver:  Solving for Uz, Initial residual = 0.00193739, Final residual = 1.06254e-06, No Iterations 1
DICPCG:  Solving for p, Initial residual = 8.51694e-05, Final residual = 3.99462e-06, No Iterations 431
time step continuity errors : sum local = 1.08477e-09, global = 1.84546e-11, cumulative = 1.41053e-08
DICPCG:  Solving for p, Initial residual = 8.02946e-06, Final residual = 9.05873e-07, No Iterations 18
[...]
smoothSolver:  Solving for Uz, Initial residual = 4.75216e-08, Final residual = 4.75216e-08, No Iterations 0
DICPCG:  Solving for p, Initial residual = 7.80422e-06, Final residual = 9.99538e-07, No Iterations 44
time step continuity errors : sum local = 1.39288e-10, global = -3.03095e-13, cumulative = 5.53016e-08
DICPCG:  Solving for p, Initial residual = 1.14736e-06, Final residual = 8.64526e-07, No Iterations 1
time step continuity errors : sum local = 1.20474e-10, global = -6.98923e-13, cumulative = 5.53009e-08
ExecutionTime = 3838.44 s  ClockTime = 4008 s

Time = 99450

Courant Number mean: 0.0321042 max: 0.292337
smoothSolver:  Solving for Ux, Initial residual = 1.98125e-06, Final residual = 1.98125e-06, No Iterations 0
smoothSolver:  Solving for Uy, Initial residual = 2.33427e-06, Final residual = 2.33427e-06, No Iterations 0
smoothSolver:  Solving for Uz, Initial residual = 6.92947e-08, Final residual = 6.92947e-08, No Iterations 0
DICPCG:  Solving for p, Initial residual = 7.92577e-06, Final residual = 9.38167e-07, No Iterations 25
time step continuity errors : sum local = 1.30736e-10, global = -5.66288e-12, cumulative = 5.52952e-08
DICPCG:  Solving for p, Initial residual = 1.09383e-06, Final residual = 8.5529e-07, No Iterations 1
time step continuity errors : sum local = 1.19187e-10, global = -6.6314e-12, cumulative = 5.52886e-08
ExecutionTime = 3838.82 s  ClockTime = 4009 s

Time = 99475

Courant Number mean: 0.0321042 max: 0.292337
smoothSolver:  Solving for Ux, Initial residual = 1.88671e-06, Final residual = 1.88671e-06, No Iterations 0
smoothSolver:  Solving for Uy, Initial residual = 2.40951e-06, Final residual = 2.40951e-06, No Iterations 0
smoothSolver:  Solving for Uz, Initial residual = 5.73205e-08, Final residual = 5.73205e-08, No Iterations 0
DICPCG:  Solving for p, Initial residual = 7.85437e-06, Final residual = 8.90787e-07, No Iterations 49
time step continuity errors : sum local = 1.24133e-10, global = -2.24393e-12, cumulative = 5.52863e-08
DICPCG:  Solving for p, Initial residual = 1.03734e-06, Final residual = 7.53832e-07, No Iterations 1
time step continuity errors : sum local = 1.05048e-10, global = -2.01157e-12, cumulative = 5.52843e-08
ExecutionTime = 3839.33 s  ClockTime = 4009 s

Time = 99500

Courant Number mean: 0.0321042 max: 0.292337
smoothSolver:  Solving for Ux, Initial residual = 1.89071e-06, Final residual = 1.89071e-06, No Iterations 0
smoothSolver:  Solving for Uy, Initial residual = 2.63811e-06, Final residual = 2.63811e-06, No Iterations 0
smoothSolver:  Solving for Uz, Initial residual = 5.66169e-08, Final residual = 5.66169e-08, No Iterations 0
DICPCG:  Solving for p, Initial residual = 7.63751e-06, Final residual = 9.93413e-07, No Iterations 18
time step continuity errors : sum local = 1.38435e-10, global = -5.58613e-12, cumulative = 5.52788e-08
DICPCG:  Solving for p, Initial residual = 1.13124e-06, Final residual = 9.14871e-07, No Iterations 1
time step continuity errors : sum local = 1.2749e-10, global = -6.2591e-12, cumulative = 5.52725e-08
ExecutionTime = 3839.69 s  ClockTime = 4009 s

Time = 99525

Courant Number mean: 0.0321042 max: 0.292337
smoothSolver:  Solving for Ux, Initial residual = 1.90154e-06, Final residual = 1.90154e-06, No Iterations 0
smoothSolver:  Solving for Uy, Initial residual = 2.22086e-06, Final residual = 2.22086e-06, No Iterations 0
smoothSolver:  Solving for Uz, Initial residual = 4.70116e-08, Final residual = 4.70116e-08, No Iterations 0
DICPCG:  Solving for p, Initial residual = 7.88014e-06, Final residual = 9.95011e-07, No Iterations 41
time step continuity errors : sum local = 1.38657e-10, global = -7.24994e-12, cumulative = 5.52652e-08
DICPCG:  Solving for p, Initial residual = 1.14193e-06, Final residual = 8.65985e-07, No Iterations 1
time step continuity errors : sum local = 1.20677e-10, global = -7.3774e-12, cumulative = 5.52579e-08
ExecutionTime = 3840.21 s  ClockTime = 4010 s

Time = 99550

Courant Number mean: 0.0321042 max: 0.292337
smoothSolver:  Solving for Ux, Initial residual = 1.95688e-06, Final residual = 1.95688e-06, No Iterations 0
smoothSolver:  Solving for Uy, Initial residual = 2.41781e-06, Final residual = 2.41781e-06, No Iterations 0
smoothSolver:  Solving for Uz, Initial residual = 4.71927e-08, Final residual = 4.71927e-08, No Iterations 0
DICPCG:  Solving for p, Initial residual = 7.81991e-06, Final residual = 9.27046e-07, No Iterations 22
time step continuity errors : sum local = 1.29186e-10, global = -7.39991e-12, cumulative = 5.52505e-08
DICPCG:  Solving for p, Initial residual = 1.06063e-06, Final residual = 8.0498e-07, No Iterations 1
time step continuity errors : sum local = 1.12176e-10, global = -7.47317e-12, cumulative = 5.5243e-08
ExecutionTime = 3840.6 s  ClockTime = 4010 s

Time = 99575

Courant Number mean: 0.0321042 max: 0.292337
smoothSolver:  Solving for Ux, Initial residual = 1.68555e-06, Final residual = 1.68555e-06, No Iterations 0
smoothSolver:  Solving for Uy, Initial residual = 2.13459e-06, Final residual = 2.13459e-06, No Iterations 0
smoothSolver:  Solving for Uz, Initial residual = 3.85301e-08, Final residual = 3.85301e-08, No Iterations 0
DICPCG:  Solving for p, Initial residual = 7.54051e-06, Final residual = 9.68436e-07, No Iterations 9
time step continuity errors : sum local = 1.34954e-10, global = -7.60157e-12, cumulative = 5.52354e-08
DICPCG:  Solving for p, Initial residual = 1.10843e-06, Final residual = 8.80042e-07, No Iterations 1
time step continuity errors : sum local = 1.22636e-10, global = -7.6796e-12, cumulative = 5.52277e-08
ExecutionTime = 3840.94 s  ClockTime = 4011 s

Time = 99600

Courant Number mean: 0.0321042 max: 0.292337
smoothSolver:  Solving for Ux, Initial residual = 1.76934e-06, Final residual = 1.76934e-06, No Iterations 0
smoothSolver:  Solving for Uy, Initial residual = 2.37104e-06, Final residual = 2.37104e-06, No Iterations 0
smoothSolver:  Solving for Uz, Initial residual = 3.4454e-08, Final residual = 3.4454e-08, No Iterations 0
DICPCG:  Solving for p, Initial residual = 7.41158e-06, Final residual = 9.81138e-07, No Iterations 28
time step continuity errors : sum local = 1.36724e-10, global = -5.20475e-12, cumulative = 5.52225e-08
DICPCG:  Solving for p, Initial residual = 1.1227e-06, Final residual = 8.58934e-07, No Iterations 1
time step continuity errors : sum local = 1.19695e-10, global = -5.1055e-12, cumulative = 5.52174e-08
ExecutionTime = 3841.33 s  ClockTime = 4011 s

Time = 99625

Courant Number mean: 0.0321042 max: 0.292337
smoothSolver:  Solving for Ux, Initial residual = 1.74771e-06, Final residual = 1.74771e-06, No Iterations 0
smoothSolver:  Solving for Uy, Initial residual = 2.19404e-06, Final residual = 2.19404e-06, No Iterations 0
smoothSolver:  Solving for Uz, Initial residual = 4.22007e-08, Final residual = 4.22007e-08, No Iterations 0
DICPCG:  Solving for p, Initial residual = 7.6894e-06, Final residual = 8.79606e-07, No Iterations 16
time step continuity errors : sum local = 1.22576e-10, global = -8.66572e-12, cumulative = 5.52087e-08
DICPCG:  Solving for p, Initial residual = 1.02292e-06, Final residual = 7.86954e-07, No Iterations 1
time step continuity errors : sum local = 1.09664e-10, global = -9.20483e-12, cumulative = 5.51995e-08
ExecutionTime = 3841.71 s  ClockTime = 4011 s

Time = 99650

Courant Number mean: 0.0321042 max: 0.292337
smoothSolver:  Solving for Ux, Initial residual = 1.86203e-06, Final residual = 1.86203e-06, No Iterations 0
smoothSolver:  Solving for Uy, Initial residual = 2.3648e-06, Final residual = 2.3648e-06, No Iterations 0
smoothSolver:  Solving for Uz, Initial residual = 3.32321e-08, Final residual = 3.32321e-08, No Iterations 0
DICPCG:  Solving for p, Initial residual = 7.68816e-06, Final residual = 8.40866e-07, No Iterations 10
time step continuity errors : sum local = 1.17177e-10, global = -8.73075e-12, cumulative = 5.51908e-08
DICPCG:  Solving for p, Initial residual = 9.75459e-07, Final residual = 9.75459e-07, No Iterations 0
time step continuity errors : sum local = 1.35933e-10, global = -8.82506e-12, cumulative = 5.5182e-08
ExecutionTime = 3842.02 s  ClockTime = 4012 s

Time = 99675

Courant Number mean: 0.0321042 max: 0.292337
smoothSolver:  Solving for Ux, Initial residual = 1.62637e-06, Final residual = 1.62637e-06, No Iterations 0
smoothSolver:  Solving for Uy, Initial residual = 2.35623e-06, Final residual = 2.35623e-06, No Iterations 0
smoothSolver:  Solving for Uz, Initial residual = 2.66593e-08, Final residual = 2.66593e-08, No Iterations 0
DICPCG:  Solving for p, Initial residual = 7.44229e-06, Final residual = 9.2831e-07, No Iterations 7
time step continuity errors : sum local = 1.29363e-10, global = -8.33724e-12, cumulative = 5.51736e-08
DICPCG:  Solving for p, Initial residual = 1.06022e-06, Final residual = 8.70163e-07, No Iterations 1
time step continuity errors : sum local = 1.2126e-10, global = -8.25098e-12, cumulative = 5.51654e-08
ExecutionTime = 3842.33 s  ClockTime = 4012 s

Time = 99700

Courant Number mean: 0.0321042 max: 0.292337
smoothSolver:  Solving for Ux, Initial residual = 1.30395e-06, Final residual = 1.30395e-06, No Iterations 0
smoothSolver:  Solving for Uy, Initial residual = 1.51236e-06, Final residual = 1.51236e-06, No Iterations 0
smoothSolver:  Solving for Uz, Initial residual = 2.53617e-08, Final residual = 2.53617e-08, No Iterations 0
DICPCG:  Solving for p, Initial residual = 7.10527e-06, Final residual = 9.85194e-07, No Iterations 6
time step continuity errors : sum local = 1.37289e-10, global = -7.44691e-12, cumulative = 5.51579e-08
DICPCG:  Solving for p, Initial residual = 1.09607e-06, Final residual = 9.17473e-07, No Iterations 1
time step continuity errors : sum local = 1.27852e-10, global = -7.38944e-12, cumulative = 5.51505e-08
ExecutionTime = 3842.63 s  ClockTime = 4012 s

Time = 99725

Courant Number mean: 0.0321042 max: 0.292337
smoothSolver:  Solving for Ux, Initial residual = 1.19927e-06, Final residual = 1.19927e-06, No Iterations 0
smoothSolver:  Solving for Uy, Initial residual = 1.40715e-06, Final residual = 1.40715e-06, No Iterations 0
smoothSolver:  Solving for Uz, Initial residual = 2.43538e-08, Final residual = 2.43538e-08, No Iterations 0
DICPCG:  Solving for p, Initial residual = 7.08877e-06, Final residual = 9.97745e-07, No Iterations 6
time step continuity errors : sum local = 1.39038e-10, global = -6.2809e-12, cumulative = 5.51443e-08
DICPCG:  Solving for p, Initial residual = 1.11875e-06, Final residual = 9.46403e-07, No Iterations 1
time step continuity errors : sum local = 1.31884e-10, global = -6.1943e-12, cumulative = 5.51381e-08
ExecutionTime = 3842.96 s  ClockTime = 4013 s

Time = 99750

Courant Number mean: 0.0321042 max: 0.292337
smoothSolver:  Solving for Ux, Initial residual = 1.11153e-06, Final residual = 1.11153e-06, No Iterations 0
smoothSolver:  Solving for Uy, Initial residual = 1.24863e-06, Final residual = 1.24863e-06, No Iterations 0
smoothSolver:  Solving for Uz, Initial residual = 2.34582e-08, Final residual = 2.34582e-08, No Iterations 0
DICPCG:  Solving for p, Initial residual = 7.08449e-06, Final residual = 9.93867e-07, No Iterations 7
time step continuity errors : sum local = 1.38498e-10, global = -4.73853e-12, cumulative = 5.51333e-08
DICPCG:  Solving for p, Initial residual = 1.1227e-06, Final residual = 9.30252e-07, No Iterations 1
time step continuity errors : sum local = 1.29633e-10, global = -4.67259e-12, cumulative = 5.51287e-08
ExecutionTime = 3843.24 s  ClockTime = 4013 s

Time = 99775

Courant Number mean: 0.0321042 max: 0.292337
smoothSolver:  Solving for Ux, Initial residual = 1.05425e-06, Final residual = 1.05425e-06, No Iterations 0
smoothSolver:  Solving for Uy, Initial residual = 1.14902e-06, Final residual = 1.14902e-06, No Iterations 0
smoothSolver:  Solving for Uz, Initial residual = 2.31636e-08, Final residual = 2.31636e-08, No Iterations 0
DICPCG:  Solving for p, Initial residual = 6.9662e-06, Final residual = 9.49162e-07, No Iterations 6
time step continuity errors : sum local = 1.32268e-10, global = -2.97927e-12, cumulative = 5.51257e-08
DICPCG:  Solving for p, Initial residual = 1.06397e-06, Final residual = 8.96904e-07, No Iterations 1
time step continuity errors : sum local = 1.24986e-10, global = -2.80391e-12, cumulative = 5.51229e-08
ExecutionTime = 3843.57 s  ClockTime = 4013 s

Time = 99800

Courant Number mean: 0.0321042 max: 0.292337
smoothSolver:  Solving for Ux, Initial residual = 1.05228e-06, Final residual = 1.05228e-06, No Iterations 0
smoothSolver:  Solving for Uy, Initial residual = 1.09758e-06, Final residual = 1.09758e-06, No Iterations 0
smoothSolver:  Solving for Uz, Initial residual = 2.30892e-08, Final residual = 2.30892e-08, No Iterations 0
DICPCG:  Solving for p, Initial residual = 6.93474e-06, Final residual = 9.14732e-07, No Iterations 6
time step continuity errors : sum local = 1.2747e-10, global = -9.96094e-13, cumulative = 5.51219e-08
DICPCG:  Solving for p, Initial residual = 1.03694e-06, Final residual = 8.72433e-07, No Iterations 1
time step continuity errors : sum local = 1.21576e-10, global = -8.02902e-13, cumulative = 5.51211e-08
ExecutionTime = 3843.88 s  ClockTime = 4014 s

Time = 99825

Courant Number mean: 0.0321042 max: 0.292337
smoothSolver:  Solving for Ux, Initial residual = 1.04515e-06, Final residual = 1.04515e-06, No Iterations 0
smoothSolver:  Solving for Uy, Initial residual = 1.05535e-06, Final residual = 1.05535e-06, No Iterations 0
smoothSolver:  Solving for Uz, Initial residual = 2.29485e-08, Final residual = 2.29485e-08, No Iterations 0
DICPCG:  Solving for p, Initial residual = 6.94277e-06, Final residual = 9.91729e-07, No Iterations 5
time step continuity errors : sum local = 1.382e-10, global = 1.27839e-12, cumulative = 5.51224e-08
DICPCG:  Solving for p, Initial residual = 1.10328e-06, Final residual = 9.21439e-07, No Iterations 1
time step continuity errors : sum local = 1.28405e-10, global = 1.50203e-12, cumulative = 5.51239e-08
ExecutionTime = 3844.2 s  ClockTime = 4014 s

Time = 99850

Courant Number mean: 0.0321042 max: 0.292337
smoothSolver:  Solving for Ux, Initial residual = 1.02906e-06, Final residual = 1.02906e-06, No Iterations 0
smoothSolver:  Solving for Uy, Initial residual = 1.02912e-06, Final residual = 1.02912e-06, No Iterations 0
smoothSolver:  Solving for Uz, Initial residual = 2.27879e-08, Final residual = 2.27879e-08, No Iterations 0
DICPCG:  Solving for p, Initial residual = 6.99701e-06, Final residual = 9.96688e-07, No Iterations 4
time step continuity errors : sum local = 1.38891e-10, global = 3.45404e-12, cumulative = 5.51273e-08
DICPCG:  Solving for p, Initial residual = 1.14013e-06, Final residual = 9.7533e-07, No Iterations 1
time step continuity errors : sum local = 1.35915e-10, global = 3.62005e-12, cumulative = 5.51309e-08
ExecutionTime = 3844.52 s  ClockTime = 4014 s

Time = 99875

Courant Number mean: 0.0321042 max: 0.292337
smoothSolver:  Solving for Ux, Initial residual = 1.00297e-06, Final residual = 1.00297e-06, No Iterations 0
smoothSolver:  Solving for Uy, Initial residual = 1.01858e-06, Final residual = 1.01858e-06, No Iterations 0
smoothSolver:  Solving for Uz, Initial residual = 2.26455e-08, Final residual = 2.26455e-08, No Iterations 0
DICPCG:  Solving for p, Initial residual = 7.08208e-06, Final residual = 9.63322e-07, No Iterations 4
time step continuity errors : sum local = 1.34242e-10, global = 5.62869e-12, cumulative = 5.51366e-08
DICPCG:  Solving for p, Initial residual = 1.10905e-06, Final residual = 9.47968e-07, No Iterations 1
time step continuity errors : sum local = 1.32102e-10, global = 5.89161e-12, cumulative = 5.51425e-08
ExecutionTime = 3844.83 s  ClockTime = 4015 s

Time = 99900

Courant Number mean: 0.0321042 max: 0.292337
smoothSolver:  Solving for Ux, Initial residual = 9.76847e-07, Final residual = 9.76847e-07, No Iterations 0
smoothSolver:  Solving for Uy, Initial residual = 9.94322e-07, Final residual = 9.94322e-07, No Iterations 0
smoothSolver:  Solving for Uz, Initial residual = 2.24558e-08, Final residual = 2.24558e-08, No Iterations 0
DICPCG:  Solving for p, Initial residual = 7.09159e-06, Final residual = 9.95073e-07, No Iterations 64
time step continuity errors : sum local = 1.38666e-10, global = -1.77897e-12, cumulative = 5.51407e-08
DICPCG:  Solving for p, Initial residual = 1.14604e-06, Final residual = 8.17465e-07, No Iterations 1
time step continuity errors : sum local = 1.13916e-10, global = -3.06089e-12, cumulative = 5.51376e-08
ExecutionTime = 3845.39 s  ClockTime = 4015 s

Time = 99925

Courant Number mean: 0.0321042 max: 0.292337
smoothSolver:  Solving for Ux, Initial residual = 2.27532e-06, Final residual = 2.27532e-06, No Iterations 0
smoothSolver:  Solving for Uy, Initial residual = 2.57227e-06, Final residual = 2.57227e-06, No Iterations 0
smoothSolver:  Solving for Uz, Initial residual = 9.97777e-08, Final residual = 9.97777e-08, No Iterations 0
DICPCG:  Solving for p, Initial residual = 7.89456e-06, Final residual = 9.10759e-07, No Iterations 39
time step continuity errors : sum local = 1.26917e-10, global = -6.48306e-12, cumulative = 5.51311e-08
DICPCG:  Solving for p, Initial residual = 1.04809e-06, Final residual = 7.70892e-07, No Iterations 1
time step continuity errors : sum local = 1.07426e-10, global = -6.96813e-12, cumulative = 5.51242e-08
ExecutionTime = 3845.85 s  ClockTime = 4016 s

Time = 99950

Courant Number mean: 0.0321042 max: 0.292337
smoothSolver:  Solving for Ux, Initial residual = 1.88687e-06, Final residual = 1.88687e-06, No Iterations 0
smoothSolver:  Solving for Uy, Initial residual = 2.32856e-06, Final residual = 2.32856e-06, No Iterations 0
smoothSolver:  Solving for Uz, Initial residual = 6.40515e-08, Final residual = 6.40515e-08, No Iterations 0
DICPCG:  Solving for p, Initial residual = 7.65915e-06, Final residual = 9.31272e-07, No Iterations 25
time step continuity errors : sum local = 1.29775e-10, global = -5.65332e-12, cumulative = 5.51185e-08
DICPCG:  Solving for p, Initial residual = 1.0887e-06, Final residual = 8.69859e-07, No Iterations 1
time step continuity errors : sum local = 1.21217e-10, global = -5.69443e-12, cumulative = 5.51128e-08
ExecutionTime = 3846.24 s  ClockTime = 4016 s

Time = 99975

Courant Number mean: 0.0321042 max: 0.292337
smoothSolver:  Solving for Ux, Initial residual = 1.83318e-06, Final residual = 1.83318e-06, No Iterations 0
smoothSolver:  Solving for Uy, Initial residual = 2.35444e-06, Final residual = 2.35444e-06, No Iterations 0
smoothSolver:  Solving for Uz, Initial residual = 5.56529e-08, Final residual = 5.56529e-08, No Iterations 0
DICPCG:  Solving for p, Initial residual = 7.83729e-06, Final residual = 9.87147e-07, No Iterations 58
time step continuity errors : sum local = 1.37562e-10, global = 3.16498e-12, cumulative = 5.5116e-08
DICPCG:  Solving for p, Initial residual = 1.12958e-06, Final residual = 8.16304e-07, No Iterations 1
time step continuity errors : sum local = 1.13754e-10, global = 4.45943e-12, cumulative = 5.51204e-08
ExecutionTime = 3846.81 s  ClockTime = 4017 s

Time = 100000

Courant Number mean: 0.0321042 max: 0.292337
smoothSolver:  Solving for Ux, Initial residual = 1.97184e-06, Final residual = 1.97184e-06, No Iterations 0
smoothSolver:  Solving for Uy, Initial residual = 2.53766e-06, Final residual = 2.53766e-06, No Iterations 0
smoothSolver:  Solving for Uz, Initial residual = 7.33e-08, Final residual = 7.33e-08, No Iterations 0
DICPCG:  Solving for p, Initial residual = 7.77727e-06, Final residual = 9.2235e-07, No Iterations 34
time step continuity errors : sum local = 1.28532e-10, global = 1.6958e-12, cumulative = 5.51221e-08
DICPCG:  Solving for p, Initial residual = 1.06114e-06, Final residual = 8.14707e-07, No Iterations 1
time step continuity errors : sum local = 1.13531e-10, global = 1.30547e-12, cumulative = 5.51234e-08
ExecutionTime = 3847.96 s  ClockTime = 4018 s

End

